(PID.TID 0000.0001) 
(PID.TID 0000.0001) #/ ======================================================
(PID.TID 0000.0001) #/                      MITgcm UV
(PID.TID 0000.0001) #/                      =========
(PID.TID 0000.0001) #/ ======================================================
(PID.TID 0000.0001) #/ execution environment starting up...
(PID.TID 0000.0001) 
(PID.TID 0000.0001) #/ MITgcmUV version:  checkpoint67y
(PID.TID 0000.0001) #/ Build user:        dannes1
(PID.TID 0000.0001) #/ Build host:        uan01
(PID.TID 0000.0001) #/ Build date:        Tue 15 Jun 11:55:26 BST 2021
(PID.TID 0000.0001) 
(PID.TID 0000.0001) #/ =======================================================
(PID.TID 0000.0001) #/ Execution Environment parameter file "eedata"
(PID.TID 0000.0001) #/ =======================================================
(PID.TID 0000.0001) ># Example "eedata" file
(PID.TID 0000.0001) ># Lines beginning "#" are comments
(PID.TID 0000.0001) ># nTx - No. threads per process in X
(PID.TID 0000.0001) ># nTy - No. threads per process in Y
(PID.TID 0000.0001) > &EEPARMS
(PID.TID 0000.0001) > nTx=1,nTy=1,
(PID.TID 0000.0001) > usingMPI =.TRUE.,
(PID.TID 0000.0001) > debugMode=.TRUE.,
(PID.TID 0000.0001) > /
(PID.TID 0000.0001) ># Note: Some systems use & as the
(PID.TID 0000.0001) ># namelist terminator. Other systems
(PID.TID 0000.0001) ># use a / character (as shown here).
(PID.TID 0000.0001) 
(PID.TID 0000.0001) #/ =======================================================
(PID.TID 0000.0001) #/ Computational Grid Specification ( see files "SIZE.h" )
(PID.TID 0000.0001) #/                                  ( and "eedata"       )
(PID.TID 0000.0001) #/ =======================================================
(PID.TID 0000.0001)      nPx =   14 ; #* No. processes in X */
(PID.TID 0000.0001)      nPy =    9 ; #* No. processes in Y */
(PID.TID 0000.0001)      nSx =    1 ; #* No. tiles in X per process */
(PID.TID 0000.0001)      nSy =    1 ; #* No. tiles in Y per process */
(PID.TID 0000.0001)      sNx =   50 ; #* Tile size in X */
(PID.TID 0000.0001)      sNy =   62 ; #* Tile size in Y */
(PID.TID 0000.0001)      OLx =    4 ; #* Tile overlap distance in X */
(PID.TID 0000.0001)      OLy =    4 ; #* Tile overlap distance in Y */
(PID.TID 0000.0001)      nTx =    1 ; #* No. threads in X per process */
(PID.TID 0000.0001)      nTy =    1 ; #* No. threads in Y per process */
(PID.TID 0000.0001)       Nr =  100 ; #* No. levels in the vertical   */
(PID.TID 0000.0001)       Nx =  700 ; #* Total domain size in X ( = nPx*nSx*sNx ) */
(PID.TID 0000.0001)       Ny =  558 ; #* Total domain size in Y ( = nPy*nSy*sNy ) */
(PID.TID 0000.0001)   nTiles =    1 ; #* Total no. tiles per process ( = nSx*nSy ) */
(PID.TID 0000.0001)   nProcs =  126 ; #* Total no. processes ( = nPx*nPy ) */
(PID.TID 0000.0001) nThreads =    1 ; #* Total no. threads per process ( = nTx*nTy ) */
(PID.TID 0000.0001) usingMPI =    T ; #* Flag used to control whether MPI is in use */
(PID.TID 0000.0001)                   #*  note: To execute a program with MPI calls */
(PID.TID 0000.0001)                   #*  it must be launched appropriately e.g     */
(PID.TID 0000.0001)                   #*  "mpirun -np 64 ......"                    */
(PID.TID 0000.0001) useCoupler=   F ; #* Flag used to control communications with   */
(PID.TID 0000.0001)                   #*  other model components, through a coupler */
(PID.TID 0000.0001) useNest2W_parent =    F ;#* Control 2-W Nesting comm */
(PID.TID 0000.0001) useNest2W_child  =    F ;#* Control 2-W Nesting comm */
(PID.TID 0000.0001) debugMode =    T ; #* print debug msg. (sequence of S/R calls)  */
(PID.TID 0000.0001) printMapIncludesZeros=    F ; #* print zeros in Std.Output maps */
(PID.TID 0000.0001) maxLengthPrt1D=   65 #* maxLength of 1D array printed to StdOut */
(PID.TID 0000.0001) 
(PID.TID 0000.0001) ======= Starting MPI parallel Run =========
(PID.TID 0000.0001)  My Processor Name (len:  9 ) = nid001106
(PID.TID 0000.0001)  Located at (  0,  0) on processor grid (0: 13,0:  8)
(PID.TID 0000.0001)  Origin at  (     1,     1) on global grid (1:   700,1:   558)
(PID.TID 0000.0001)  North neighbor = processor 0001
(PID.TID 0000.0001)  South neighbor = processor 0008
(PID.TID 0000.0001)   East neighbor = processor 0009
(PID.TID 0000.0001)   West neighbor = processor 0117
(PID.TID 0000.0001) #/ ======================================================
(PID.TID 0000.0001) #/ Mapping of tiles to threads
(PID.TID 0000.0001) #/ ======================================================
(PID.TID 0000.0001) #/ -o- Thread   1, tiles (   1:   1,   1:   1)
(PID.TID 0000.0001) 
(PID.TID 0000.0001) #/ ======================================================
(PID.TID 0000.0001) #/ Tile <-> Tile connectvity table
(PID.TID 0000.0001) #/ ======================================================
(PID.TID 0000.0001) #/ Tile number: 000001 (process no. = 000000)
(PID.TID 0000.0001) #/        WEST: Tile = 000014, Process = 000117, Comm = messages
(PID.TID 0000.0001) #/                bi = 000001, bj = 000001
(PID.TID 0000.0001) #/        EAST: Tile = 000002, Process = 000009, Comm = messages
(PID.TID 0000.0001) #/                bi = 000001, bj = 000001
(PID.TID 0000.0001) #/       SOUTH: Tile = 000113, Process = 000008, Comm = messages
(PID.TID 0000.0001) #/                bi = 000001, bj = 000001
(PID.TID 0000.0001) #/       NORTH: Tile = 000015, Process = 000001, Comm = messages
(PID.TID 0000.0001) #/                bi = 000001, bj = 000001
(PID.TID 0000.0001) 
(PID.TID 0000.0001) DEBUG_MSG: ENTERED S#R THE_MODEL_MAIN
(PID.TID 0000.0001) DEBUG_MSG: CALLING S#R INITIALISE_FIXED
(PID.TID 0000.0001) DEBUG_MSG: ENTERED S#R INITIALISE_FIXED
(PID.TID 0000.0001) DEBUG_MSG: CALLING S#R INI_PARMS
(PID.TID 0000.0001)  INI_PARMS: opening model parameter file "data"
(PID.TID 0000.0001)  OPEN_COPY_DATA_FILE: opening file data
(PID.TID 0000.0001) #/ =======================================================
(PID.TID 0000.0001) #/ Parameter file "data"
(PID.TID 0000.0001) #/ =======================================================
(PID.TID 0000.0001) ># ====================
(PID.TID 0000.0001) ># | Model parameters |
(PID.TID 0000.0001) ># ====================
(PID.TID 0000.0001) >#
(PID.TID 0000.0001) ># Continuous equation parameters
(PID.TID 0000.0001) > &PARM01
(PID.TID 0000.0001) >#viscAh=1.E1,
(PID.TID 0000.0001) >#viscAhGrid=1.E-1,
(PID.TID 0000.0001) > viscA4=1.E8,
(PID.TID 0000.0001) > diffK4T=1.E8,
(PID.TID 0000.0001) > diffK4S=1.E8,
(PID.TID 0000.0001) > viscAz= 1.e-05,
(PID.TID 0000.0001) > no_slip_sides = .FALSE.,
(PID.TID 0000.0001) > no_slip_bottom = .FALSE.,
(PID.TID 0000.0001) > diffKzT=1.e-5,
(PID.TID 0000.0001) > diffKzS=1.e-5,
(PID.TID 0000.0001) > beta=1.E-11,
(PID.TID 0000.0001) > tAlpha=2.E-4,
(PID.TID 0000.0001) > sBeta =7.4E-4,
(PID.TID 0000.0001) > viscC4Leith=2.0,
(PID.TID 0000.0001) > viscC4Leithd=2.0,
(PID.TID 0000.0001) > viscA4GridMax=1.0,
(PID.TID 0000.0001) > useAreaViscLength=.TRUE.,
(PID.TID 0000.0001) > highOrderVorticity  = .TRUE.,
(PID.TID 0000.0001) > bottomDragQuadratic = 0.002,
(PID.TID 0000.0001) >#CMM ##########
(PID.TID 0000.0001) > beta=1.E-11,
(PID.TID 0000.0001) > tAlpha=2.E-4,
(PID.TID 0000.0001) > sBeta =7.4E-4,
(PID.TID 0000.0001) > rhonil=1035.,
(PID.TID 0000.0001) > rhoConstFresh=1000.,
(PID.TID 0000.0001) > gravity=9.81,
(PID.TID 0000.0001) > eosType = 'JMD95Z',
(PID.TID 0000.0001) >#when using ggl90
(PID.TID 0000.0001) > ivdc_kappa=10.,
(PID.TID 0000.0001) >#
(PID.TID 0000.0001) > implicitDiffusion=.true.,
(PID.TID 0000.0001) > implicitViscosity=.true.,
(PID.TID 0000.0001) > implicitFreeSurface=.true.,
(PID.TID 0000.0001) > convertFW2Salt = -1.,
(PID.TID 0000.0001) > useRealFreshWaterFlux=.FALSE.,
(PID.TID 0000.0001) > useCDscheme=.FALSE.,
(PID.TID 0000.0001) > useSingleCpuIO=.TRUE.,
(PID.TID 0000.0001) > vectorInvariantMomentum=.TRUE.,
(PID.TID 0000.0001) > staggerTimeStep=.TRUE.,
(PID.TID 0000.0001) > multiDimAdvection=.TRUE.,
(PID.TID 0000.0001) > tempAdvScheme=33,
(PID.TID 0000.0001) > saltAdvScheme=33,
(PID.TID 0000.0001) >#CMM(
(PID.TID 0000.0001) > tempVertAdvScheme=3,
(PID.TID 0000.0001) > saltVertAdvScheme=3,
(PID.TID 0000.0001) > tempImplVertAdv=.TRUE.,
(PID.TID 0000.0001) > saltImplVertAdv=.TRUE.,
(PID.TID 0000.0001) >#CMM)
(PID.TID 0000.0001) > useNHMTerms=.FALSE.,
(PID.TID 0000.0001) ># turn on lopped cells
(PID.TID 0000.0001) > hFacMin=0.1,
(PID.TID 0000.0001) > hFacMindz=20.,
(PID.TID 0000.0001) ># Set precision of data files
(PID.TID 0000.0001) ># If EXF is on, this does not apply to forcing or boundary condition files!
(PID.TID 0000.0001) ># See data.exf, with variables exf_iprec and exf_iprec_obcs (both default 32)
(PID.TID 0000.0001) >#DJ(
(PID.TID 0000.0001) >#readBinaryPrec=32,
(PID.TID 0000.0001) >#writeBinaryPrec=32,
(PID.TID 0000.0001) > readBinaryPrec=64,
(PID.TID 0000.0001) > writeBinaryPrec=64,
(PID.TID 0000.0001) >#DJ)
(PID.TID 0000.0001) > globalfiles=.FALSE.,
(PID.TID 0000.0001) > rotationPeriod=86164.,
(PID.TID 0000.0001) > debugLevel=5,
(PID.TID 0000.0001) > /
(PID.TID 0000.0001) >
(PID.TID 0000.0001) ># Elliptic solver parameters
(PID.TID 0000.0001) > &PARM02
(PID.TID 0000.0001) > cg2dMaxIters = 300,
(PID.TID 0000.0001) > cg2dTargetResidual=1.E-8,
(PID.TID 0000.0001) > /
(PID.TID 0000.0001) >
(PID.TID 0000.0001) ># Time stepping parameters
(PID.TID 0000.0001) > &PARM03
(PID.TID 0000.0001) > nIter0 =      0,
(PID.TID 0000.0001) > nTimeSteps =  1,
(PID.TID 0000.0001) >#nTimeSteps =  3000,
(PID.TID 0000.0001) >#nTimeSteps =  87624,
(PID.TID 0000.0001) >#nTimeSteps =  175248,
(PID.TID 0000.0001) > deltaTmom   = 900.0,
(PID.TID 0000.0001) > deltaTtracer= 900.0,
(PID.TID 0000.0001) > deltaTClock = 900.0,
(PID.TID 0000.0001) > pickupStrictlyMatch=.FALSE.,
(PID.TID 0000.0001) > dumpInitAndLast=.FALSE.
(PID.TID 0000.0001) > writePickupAtEnd=.FALSE.,
(PID.TID 0000.0001) > pChkptFreq= 0.0,
(PID.TID 0000.0001) > dumpFreq=   0.,
(PID.TID 0000.0001) > taveFreq=   0.,
(PID.TID 0000.0001) >#dumpFreq=   31536000.,
(PID.TID 0000.0001) >#taveFreq=   31536000.,
(PID.TID 0000.0001) >#diagFreq=    2629830.,
(PID.TID 0000.0001) > adjDumpFreq=  0.,
(PID.TID 0000.0001) > monitorFreq= 432000.0,
(PID.TID 0000.0001) > forcing_In_AB = .FALSE.,
(PID.TID 0000.0001) > momDissip_In_AB=.FALSE.,
(PID.TID 0000.0001) >#epsAB_CD = 0.25,
(PID.TID 0000.0001) >#when using ab2:
(PID.TID 0000.0001) >#abEps = 0.1,
(PID.TID 0000.0001) >#--
(PID.TID 0000.0001) >#when using ab3 (deactivated for now):
(PID.TID 0000.0001) >#--
(PID.TID 0000.0001) >#doAB_onGtGs=.FALSE.,
(PID.TID 0000.0001) >#alph_AB=0.5,
(PID.TID 0000.0001) >#beta_AB=0.281105,
(PID.TID 0000.0001) >#
(PID.TID 0000.0001) > periodicExternalForcing=.TRUE.,
(PID.TID 0000.0001) > externForcingPeriod=2629800.,
(PID.TID 0000.0001) > externForcingCycle=31557600.,
(PID.TID 0000.0001) >#
(PID.TID 0000.0001) > /
(PID.TID 0000.0001) >
(PID.TID 0000.0001) ># Gridding parameters
(PID.TID 0000.0001) > &PARM04
(PID.TID 0000.0001) > usingCartesianGrid=.FALSE.,
(PID.TID 0000.0001) > usingSphericalPolarGrid=.TRUE.,
(PID.TID 0000.0001) > xgOrigin= 275.,
(PID.TID 0000.0001) > ygOrigin= -84.2,
(PID.TID 0000.0001) > dxSpacing= 0.25,
(PID.TID 0000.0001) > delYfile= 'delY'
(PID.TID 0000.0001) > delRfile= 'delR'
(PID.TID 0000.0001) > /
(PID.TID 0000.0001) >
(PID.TID 0000.0001) ># Input datasets
(PID.TID 0000.0001) > &PARM05
(PID.TID 0000.0001) >  bathyFile = 'bathy_gyre',
(PID.TID 0000.0001) ># hydrogThetaFile='THETA_SO6_FromSO3i121.bin',
(PID.TID 0000.0001) ># hydrogSaltFile='SALT_SO6_FromSO3i121.bin',
(PID.TID 0000.0001) ># uVelInitFile='UVEL_SO6_FromSO3i121.bin',
(PID.TID 0000.0001) ># vVelInitFile='VVEL_SO6_FromSO3i121.bin',
(PID.TID 0000.0001) ># adTapeDir = '/tmp/',
(PID.TID 0000.0001) ># mdsioLocalDir = '/tmp/',
(PID.TID 0000.0001) > /
(PID.TID 0000.0001) 
(PID.TID 0000.0001)  INI_PARMS ; starts to read PARM01
(PID.TID 0000.0001)  INI_PARMS ; read PARM01 : OK
(PID.TID 0000.0001)  INI_PARMS ; starts to read PARM02
(PID.TID 0000.0001)  INI_PARMS ; read PARM02 : OK
(PID.TID 0000.0001)  INI_PARMS ; starts to read PARM03
(PID.TID 0000.0001)  INI_PARMS ; read PARM03 : OK
(PID.TID 0000.0001)  INI_PARMS ; starts to read PARM04
(PID.TID 0000.0001)  INI_PARMS ; read PARM04 : OK
(PID.TID 0000.0001)  INI_PARMS ; starts to read PARM05
(PID.TID 0000.0001)  INI_PARMS ; read PARM05 : OK
(PID.TID 0000.0001)  INI_PARMS: finished reading file "data"
(PID.TID 0000.0001) DEBUG_MSG: CALLING S#R PACKAGES_BOOT
(PID.TID 0000.0001)  PACKAGES_BOOT: opening data.pkg
(PID.TID 0000.0001)  OPEN_COPY_DATA_FILE: opening file data.pkg
(PID.TID 0000.0001) #/ =======================================================
(PID.TID 0000.0001) #/ Parameter file "data.pkg"
(PID.TID 0000.0001) #/ =======================================================
(PID.TID 0000.0001) ># Packages
(PID.TID 0000.0001) > &PACKAGES
(PID.TID 0000.0001) >#
(PID.TID 0000.0001) > useEXF         = .FALSE.,
(PID.TID 0000.0001) > useCAL         = .FALSE.,
(PID.TID 0000.0001) > usePTRACERS    = .FALSE.,
(PID.TID 0000.0001) > useGMRedi      = .FALSE.,
(PID.TID 0000.0001) > useGGL90       = .FALSE.,
(PID.TID 0000.0001) > useSALT_PlUME  = .FALSE.,
(PID.TID 0000.0001) > useECCO        = .FALSE.,
(PID.TID 0000.0001) >#
(PID.TID 0000.0001) > useCTRL        = .FALSE.,
(PID.TID 0000.0001) > useOBCS        = .FALSE.,
(PID.TID 0000.0001) > useDiagnostics = .FALSE.,
(PID.TID 0000.0001) > useSeaice      = .FALSE.,
(PID.TID 0000.0001) > useShelfIce    = .FALSE.,
(PID.TID 0000.0001) >#useFrazil      = .FALSE.,
(PID.TID 0000.0001) > usePROFILES    = .FALSE.,
(PID.TID 0000.0001) > useSMOOTH      = .FALSE.,
(PID.TID 0000.0001) > /
(PID.TID 0000.0001) >
(PID.TID 0000.0001) 
(PID.TID 0000.0001)  PACKAGES_BOOT: finished reading data.pkg
(PID.TID 0000.0001)  PACKAGES_BOOT: On#Off package Summary
 --------  pkgs with a standard "usePKG" On#Off switch in "data.pkg":  --------
 pkg#obcs                 compiled but not used ( useOBCS                  = F )
 pkg#ggl90                compiled but not used ( useGGL90                 = F )
 pkg#gmredi               compiled but not used ( useGMRedi                = F )
 pkg#cal                  compiled but not used ( useCAL                   = F )
 pkg#exf                  compiled but not used ( useEXF                   = F )
 pkg#autodiff             compiled   and   used ( useAUTODIFF              = T )
 pkg#grdchk               compiled but not used ( useGrdchk                = F )
 pkg#profiles             compiled but not used ( usePROFILES              = F )
 pkg#ecco                 compiled but not used ( useECCO                  = F )
 pkg#ctrl                 compiled but not used ( useCTRL                  = F )
 pkg#ptracers             compiled but not used ( usePTRACERS              = F )
 pkg#seaice               compiled but not used ( useSEAICE                = F )
 pkg#salt_plume           compiled but not used ( useSALT_PLUME            = F )
 pkg#shelfice             compiled but not used ( useShelfIce              = F )
 pkg#diagnostics          compiled but not used ( useDiagnostics           = F )
 -------- pkgs without standard "usePKG" On#Off switch in "data.pkg":  --------
 pkg#generic_advdiff      compiled   and   used ( useGAD                   = T )
 pkg#mom_common           compiled   and   used ( momStepping              = T )
 pkg#mom_vecinv           compiled   and   used ( +vectorInvariantMomentum = T )
 pkg#cd_code              compiled but not used ( useCDscheme              = F )
 pkg#monitor              compiled   and   used ( monitorFreq > 0.         = T )
 pkg#timeave              compiled but not used ( taveFreq > 0.            = F )
 pkg#debug                compiled   and   used ( debugMode                = T )
 pkg#rw                   compiled   and   used
 pkg#mdsio                compiled   and   used
 pkg#autodiff             compiled   and   used
 pkg#cost                 compiled   and   used
(PID.TID 0000.0001)  PACKAGES_BOOT: End of package Summary
(PID.TID 0000.0001) 
(PID.TID 0000.0001) DEBUG_MSG: CALLING S#R PACKAGES_READPARMS
(PID.TID 0000.0001) DEBUG_MSG: ENTERED S#R CAL_READPARMS
(PID.TID 0000.0001) AUTODIFF_READPARMS: opening data.autodiff
(PID.TID 0000.0001)  OPEN_COPY_DATA_FILE: opening file data.autodiff
(PID.TID 0000.0001) #/ =======================================================
(PID.TID 0000.0001) #/ Parameter file "data.autodiff"
(PID.TID 0000.0001) #/ =======================================================
(PID.TID 0000.0001) ># =========================
(PID.TID 0000.0001) ># pkg AUTODIFF parameters :
(PID.TID 0000.0001) ># =========================
(PID.TID 0000.0001) >#  inAdExact :: get an exact adjoint (no approximation) (def=.True.)
(PID.TID 0000.0001) >#
(PID.TID 0000.0001) > &AUTODIFF_PARM01
(PID.TID 0000.0001) ># inAdExact = .FALSE.,
(PID.TID 0000.0001) >#useSEAICEinAdMode = .FALSE.,
(PID.TID 0000.0001) ># useKPPinAdMode = .FALSE.,
(PID.TID 0000.0001) ># useGMRediInAdMode = .FALSE.,
(PID.TID 0000.0001) >#useGGL90inAdMode = .FALSE.,
(PID.TID 0000.0001) >#useSALT_PLUMEinAdMode = .FALSE.,
(PID.TID 0000.0001) >#viscFacInAd = 10.0,
(PID.TID 0000.0001) > /
(PID.TID 0000.0001) 
(PID.TID 0000.0001) AUTODIFF_READPARMS: finished reading data.autodiff
(PID.TID 0000.0001) #/ ===================================
(PID.TID 0000.0001) #/ AUTODIFF parameters :
(PID.TID 0000.0001) #/ ===================================
(PID.TID 0000.0001) inAdExact = #* get an exact adjoint (no approximation) */
(PID.TID 0000.0001)                   T
(PID.TID 0000.0001)     ;
(PID.TID 0000.0001) useApproxAdvectionInAdMode = #* approximate AD-advection */
(PID.TID 0000.0001)                   F
(PID.TID 0000.0001)     ;
(PID.TID 0000.0001) useKPPinAdMode = #* use KPP in adjoint mode */
(PID.TID 0000.0001)                   F
(PID.TID 0000.0001)     ;
(PID.TID 0000.0001) useGMRediInAdMode = #* use GMRedi in adjoint mode */
(PID.TID 0000.0001)                   F
(PID.TID 0000.0001)     ;
(PID.TID 0000.0001) useSEAICEinAdMode = #* use SEAICE in adjoint mode */
(PID.TID 0000.0001)                   F
(PID.TID 0000.0001)     ;
(PID.TID 0000.0001) useGGL90inAdMode = #* use GGL90 in adjoint mode */
(PID.TID 0000.0001)                   F
(PID.TID 0000.0001)     ;
(PID.TID 0000.0001) useSALT_PLUMEinAdMode = #* use SALT_PLUME in adjoint mode */
(PID.TID 0000.0001)                   F
(PID.TID 0000.0001)     ;
(PID.TID 0000.0001) SEAICEuseDYNAMICSswitchInAd = #* switch On/Off SEAICE Dyn in AD mode */
(PID.TID 0000.0001)                   F
(PID.TID 0000.0001)     ;
(PID.TID 0000.0001) SEAICEuseFREEDRIFTswitchInAd= #* switch On/Off Free-Drift in AD mode */
(PID.TID 0000.0001)                   F
(PID.TID 0000.0001)     ;
(PID.TID 0000.0001) SEAICEapproxLevInAd = #* -1:SEAICE_FAKE, >0:other adjoint approximation */
(PID.TID 0000.0001)                       0
(PID.TID 0000.0001)     ;
(PID.TID 0000.0001) dumpAdVarExch = #* control adexch before dumpinp */
(PID.TID 0000.0001)                       2
(PID.TID 0000.0001)     ;
(PID.TID 0000.0001) mon_AdVarExch = #* control adexch before monitor */
(PID.TID 0000.0001)                       2
(PID.TID 0000.0001)     ;
(PID.TID 0000.0001) viscFacInFw = #* viscosity factor for forward model */
(PID.TID 0000.0001)                 1.000000000000000E+00
(PID.TID 0000.0001)     ;
(PID.TID 0000.0001) viscFacInAd = #* viscosity factor for adjoint */
(PID.TID 0000.0001)                 1.000000000000000E+00
(PID.TID 0000.0001)     ;
(PID.TID 0000.0001) SIregFacInAd = #* sea ice factor for adjoint model */
(PID.TID 0000.0001)                 1.234567000000000E+05
(PID.TID 0000.0001)     ;
(PID.TID 0000.0001) SIregFacInFw = #* sea ice factor for forward model */
(PID.TID 0000.0001)                 1.234567000000000E+05
(PID.TID 0000.0001)     ;
(PID.TID 0000.0001) 
(PID.TID 0000.0001) COST_READPARMS: opening data.cost
(PID.TID 0000.0001)  OPEN_COPY_DATA_FILE: opening file data.cost
(PID.TID 0000.0001) #/ =======================================================
(PID.TID 0000.0001) #/ Parameter file "data.cost"
(PID.TID 0000.0001) #/ =======================================================
(PID.TID 0000.0001) >#
(PID.TID 0000.0001) >#
(PID.TID 0000.0001) ># ******************
(PID.TID 0000.0001) ># cost function
(PID.TID 0000.0001) ># ******************
(PID.TID 0000.0001) > &COST_NML
(PID.TID 0000.0001) > /
(PID.TID 0000.0001) 
(PID.TID 0000.0001) COST_READPARMS: finished reading data.cost
(PID.TID 0000.0001) DEBUG_MSG: CALLING S#R SET_PARMS
(PID.TID 0000.0001) SET_PARMS: done
(PID.TID 0000.0001) DEBUG_MSG: CALLING S#R INI_MODEL_IO
(PID.TID 0000.0001) DEBUG_MSG: CALLING S#R INI_GRID
(PID.TID 0000.0001)  MDS_READVEC_LOC: open file: delY
(PID.TID 0000.0001)  MDS_RD_REC_RL: iRec,Dim =         1        558
(PID.TID 0000.0001) S#R LOAD_GRID_SPACING: delY loaded from file: delY
(PID.TID 0000.0001)  MDS_READVEC_LOC: open file: delR
(PID.TID 0000.0001)  MDS_RD_REC_RL: iRec,Dim =         1        100
(PID.TID 0000.0001) S#R LOAD_GRID_SPACING: delR loaded from file: delR
(PID.TID 0000.0001) Enter INI_VERTICAL_GRID: setInterFDr=    T ; setCenterDr=    F
(PID.TID 0000.0001) %MON XC_max                       =   4.4987500000000E+02
(PID.TID 0000.0001) %MON XC_min                       =   2.7512500000000E+02
(PID.TID 0000.0001) %MON XC_mean                      =   3.6250000000000E+02
(PID.TID 0000.0001) %MON XC_sd                        =   5.0518097004935E+01
(PID.TID 0000.0001) %MON XG_max                       =   4.4975000000000E+02
(PID.TID 0000.0001) %MON XG_min                       =   2.7500000000000E+02
(PID.TID 0000.0001) %MON XG_mean                      =   3.6237500000000E+02
(PID.TID 0000.0001) %MON XG_sd                        =   5.0518097004935E+01
(PID.TID 0000.0001) %MON DXC_max                      =   2.4061016631593E+04
(PID.TID 0000.0001) %MON DXC_min                      =   2.8149056111036E+03
(PID.TID 0000.0001) %MON DXC_mean                     =   1.0812627915835E+04
(PID.TID 0000.0001) %MON DXC_sd                       =   6.3591674275421E+03
(PID.TID 0000.0001) %MON DXF_max                      =   2.4061016631593E+04
(PID.TID 0000.0001) %MON DXF_min                      =   2.8149056111036E+03
(PID.TID 0000.0001) %MON DXF_mean                     =   1.0812627915835E+04
(PID.TID 0000.0001) %MON DXF_sd                       =   6.3591674275421E+03
(PID.TID 0000.0001) %MON DXG_max                      =   2.4034695821616E+04
(PID.TID 0000.0001) %MON DXG_min                      =   2.8087959467782E+03
(PID.TID 0000.0001) %MON DXG_mean                     =   1.0793552841307E+04
(PID.TID 0000.0001) %MON DXG_sd                       =   6.3512556222324E+03
(PID.TID 0000.0001) %MON DXV_max                      =   2.4034695821616E+04
(PID.TID 0000.0001) %MON DXV_min                      =   2.8087959467782E+03
(PID.TID 0000.0001) %MON DXV_mean                     =   1.0793552841307E+04
(PID.TID 0000.0001) %MON DXV_sd                       =   6.3512556222324E+03
(PID.TID 0000.0001) %MON YC_max                       =  -3.0039606748101E+01
(PID.TID 0000.0001) %MON YC_min                       =  -8.4187340485774E+01
(PID.TID 0000.0001) %MON YC_mean                      =  -6.6079082010030E+01
(PID.TID 0000.0001) %MON YC_sd                        =   1.5365360246474E+01
(PID.TID 0000.0001) %MON YG_max                       =  -3.0147816683651E+01
(PID.TID 0000.0001) %MON YG_min                       =  -8.4200000000000E+01
(PID.TID 0000.0001) %MON YG_mean                      =  -6.6127709790665E+01
(PID.TID 0000.0001) %MON YG_sd                        =   1.5336835127729E+01
(PID.TID 0000.0001) %MON DYC_max                      =   2.4034679730379E+04
(PID.TID 0000.0001) %MON DYC_min                      =   2.8210283576292E+03
(PID.TID 0000.0001) %MON DYC_mean                     =   1.0812627571191E+04
(PID.TID 0000.0001) %MON DYC_sd                       =   6.3432115167296E+03
(PID.TID 0000.0001) %MON DYF_max                      =   2.4061014451868E+04
(PID.TID 0000.0001) %MON DYF_min                      =   2.8149056111042E+03
(PID.TID 0000.0001) %MON DYF_mean                     =   1.0812627571191E+04
(PID.TID 0000.0001) %MON DYF_sd                       =   6.3591669056756E+03
(PID.TID 0000.0001) %MON DYG_max                      =   2.4061014451868E+04
(PID.TID 0000.0001) %MON DYG_min                      =   2.8149056111042E+03
(PID.TID 0000.0001) %MON DYG_mean                     =   1.0812627571191E+04
(PID.TID 0000.0001) %MON DYG_sd                       =   6.3591669056756E+03
(PID.TID 0000.0001) %MON DYU_max                      =   2.4034679730379E+04
(PID.TID 0000.0001) %MON DYU_min                      =   2.8210283576292E+03
(PID.TID 0000.0001) %MON DYU_mean                     =   1.0812627571191E+04
(PID.TID 0000.0001) %MON DYU_sd                       =   6.3432115167296E+03
(PID.TID 0000.0001) %MON RA_max                       =   5.7893212473528E+08
(PID.TID 0000.0001) %MON RA_min                       =   7.9236935349604E+06
(PID.TID 0000.0001) %MON RA_mean                      =   1.5735187314558E+08
(PID.TID 0000.0001) %MON RA_sd                        =   1.6276058911283E+08
(PID.TID 0000.0001) %MON RAW_max                      =   5.7893212473528E+08
(PID.TID 0000.0001) %MON RAW_min                      =   7.9236935349604E+06
(PID.TID 0000.0001) %MON RAW_mean                     =   1.5735187314558E+08
(PID.TID 0000.0001) %MON RAW_sd                       =   1.6276058911283E+08
(PID.TID 0000.0001) %MON RAS_max                      =   5.7766656734850E+08
(PID.TID 0000.0001) %MON RAS_min                      =   7.9582011246164E+06
(PID.TID 0000.0001) %MON RAS_mean                     =   1.5689282824793E+08
(PID.TID 0000.0001) %MON RAS_sd                       =   1.6228627840459E+08
(PID.TID 0000.0001) %MON RAZ_max                      =   5.7766656734850E+08
(PID.TID 0000.0001) %MON RAZ_min                      =   7.9582011246164E+06
(PID.TID 0000.0001) %MON RAZ_mean                     =   1.5689282824793E+08
(PID.TID 0000.0001) %MON RAZ_sd                       =   1.6228627840459E+08
(PID.TID 0000.0001) %MON AngleCS_max                  =   1.0000000000000E+00
(PID.TID 0000.0001) %MON AngleCS_min                  =   1.0000000000000E+00
(PID.TID 0000.0001) %MON AngleCS_mean                 =   1.0000000000000E+00
(PID.TID 0000.0001) %MON AngleCS_sd                   =   0.0000000000000E+00
(PID.TID 0000.0001) %MON AngleSN_max                  =   0.0000000000000E+00
(PID.TID 0000.0001) %MON AngleSN_min                  =   0.0000000000000E+00
(PID.TID 0000.0001) %MON AngleSN_mean                 =   0.0000000000000E+00
(PID.TID 0000.0001) %MON AngleSN_sd                   =   0.0000000000000E+00
(PID.TID 0000.0001) DEBUG_MSG: CALLING S#R LOAD_REF_FILES
(PID.TID 0000.0001) DEBUG_MSG: CALLING S#R INI_EOS
(PID.TID 0000.0001) DEBUG_MSG: CALLING S#R SET_REF_STATE
(PID.TID 0000.0001)  MDS_WRITEVEC_LOC: open file: RhoRef.data
(PID.TID 0000.0001)  MDS_WR_REC_RL: iRec,Dim =         1        100
(PID.TID 0000.0001) DEBUG_MSG: CALLING S#R SET_GRID_FACTORS
(PID.TID 0000.0001) DEBUG_MSG: CALLING S#R INI_DEPTHS
(PID.TID 0000.0001)  MDS_READ_FIELD: opening global file: bathy_gyre
(PID.TID 0000.0001) #/ =======================================================
(PID.TID 0000.0001) #/ Field Bottom depths (ini_depths)
(PID.TID 0000.0001) #/ CMIN =         -2.329352630097360E+03
(PID.TID 0000.0001) #/ CMAX =         -1.356841626654470E+03
(PID.TID 0000.0001) #/ CINT =          3.601892605344037E+01
(PID.TID 0000.0001) #/ SYMBOLS (CMIN->CMAX): -abcdefghijklmnopqrstuvwxyz+
(PID.TID 0000.0001) #/                  0.0: .
(PID.TID 0000.0001) #/ RANGE I (Lo:Hi:Step):(    -3:    54:     1)
(PID.TID 0000.0001) #/ RANGE J (Lo:Hi:Step):(    66:    -3:    -1)
(PID.TID 0000.0001) #/ RANGE K (Lo:Hi:Step):(   1:   1:   1)
(PID.TID 0000.0001) #/ =======================================================
(PID.TID 0000.0001) K =   1
(PID.TID 0000.0001) #/                I=6       I=16      I=26      I=36      I=46
(PID.TID 0000.0001) #/ |--J--|321012345|789012345|789012345|789012345|789012345|78901234
(PID.TID 0000.0001) #/     66 ..........................................................
(PID.TID 0000.0001) #/     65 ..........................................................
(PID.TID 0000.0001) #/     64 ..........................................................
(PID.TID 0000.0001) #/     63 ..........................................................
(PID.TID 0000.0001) #/     62 ..........................................................
(PID.TID 0000.0001) #/     61 ..........................................................
(PID.TID 0000.0001) #/     60 ..........................................................
(PID.TID 0000.0001) #/     59 ..........................................................
(PID.TID 0000.0001) #/     58 ..........................................................
(PID.TID 0000.0001) #/     57 ..........................................................
(PID.TID 0000.0001) #/     56 ..........................................................
(PID.TID 0000.0001) #/     55 ..........................................................
(PID.TID 0000.0001) #/     54 ..........................................................
(PID.TID 0000.0001) #/     53 ..........................................................
(PID.TID 0000.0001) #/     52 ..........................................................
(PID.TID 0000.0001) #/     51 ..........................................................
(PID.TID 0000.0001) #/     50 ..........................................................
(PID.TID 0000.0001) #/     49 ..........................................................
(PID.TID 0000.0001) #/     48 ..........................................................
(PID.TID 0000.0001) #/     47 ..........................................................
(PID.TID 0000.0001) #/     46 ..........................................................
(PID.TID 0000.0001) #/     45 ..........................................................
(PID.TID 0000.0001) #/     44 ..........................................................
(PID.TID 0000.0001) #/     43 ..........................................................
(PID.TID 0000.0001) #/     42 ..........................................................
(PID.TID 0000.0001) #/     41 ..........................................................
(PID.TID 0000.0001) #/     40 ..........................................................
(PID.TID 0000.0001) #/     39 ..........................................................
(PID.TID 0000.0001) #/     38 ..........................................................
(PID.TID 0000.0001) #/     37 ..........................................................
(PID.TID 0000.0001) #/     36 ..........................................................
(PID.TID 0000.0001) #/     35 ..........................................................
(PID.TID 0000.0001) #/     34 ..........................................................
(PID.TID 0000.0001) #/     33 ..........................................................
(PID.TID 0000.0001) #/     32 ..........................................................
(PID.TID 0000.0001) #/     31 ..........................................................
(PID.TID 0000.0001) #/     30 ..........................................................
(PID.TID 0000.0001) #/     29 ..........................................................
(PID.TID 0000.0001) #/     28 ..........................................................
(PID.TID 0000.0001) #/     27 ..........................................................
(PID.TID 0000.0001) #/     26 ..........................................................
(PID.TID 0000.0001) #/     25 ..........................................................
(PID.TID 0000.0001) #/     24 ..........................................................
(PID.TID 0000.0001) #/     23 ..........................................................
(PID.TID 0000.0001) #/     22 ..........................................................
(PID.TID 0000.0001) #/     21 ..........................................................
(PID.TID 0000.0001) #/     20 ..........................................................
(PID.TID 0000.0001) #/     19 ..........................................................
(PID.TID 0000.0001) #/     18 ..........................................................
(PID.TID 0000.0001) #/     17 ..........................................................
(PID.TID 0000.0001) #/     16 ..........................................................
(PID.TID 0000.0001) #/     15 ..........................................................
(PID.TID 0000.0001) #/     14 ..........................................................
(PID.TID 0000.0001) #/     13 ..........................................................
(PID.TID 0000.0001) #/     12 ..........................................................
(PID.TID 0000.0001) #/     11 ..........................................................
(PID.TID 0000.0001) #/     10 ..........................................................
(PID.TID 0000.0001) #/      9 ..........................................................
(PID.TID 0000.0001) #/      8 ..........................................................
(PID.TID 0000.0001) #/      7 ..........................................................
(PID.TID 0000.0001) #/      6 ..........................................................
(PID.TID 0000.0001) #/      5 ..........................................................
(PID.TID 0000.0001) #/      4 ..........................................................
(PID.TID 0000.0001) #/      3 ..........................................................
(PID.TID 0000.0001) #/      2 ..........................................................
(PID.TID 0000.0001) #/      1 ..........................................................
(PID.TID 0000.0001) #/      0 skc-......................................................
(PID.TID 0000.0001) #/     -1 +uhf......................................................
(PID.TID 0000.0001) #/     -2 vskg......................................................
(PID.TID 0000.0001) #/     -3 kfek......................................................
(PID.TID 0000.0001) #/ =======================================================
(PID.TID 0000.0001) #/ END OF FIELD                                          =
(PID.TID 0000.0001) #/ =======================================================
(PID.TID 0000.0001) 
(PID.TID 0000.0001) #/ =======================================================
(PID.TID 0000.0001) #/ Field Surface reference r-position (ini_depths)
(PID.TID 0000.0001) #/ CMIN =          1.000000000000000E+32
(PID.TID 0000.0001) #/ CMAX =         -1.000000000000000E+32
(PID.TID 0000.0001) #/ CINT =          0.000000000000000E+00
(PID.TID 0000.0001) #/ SYMBOLS (CMIN->CMAX): -abcdefghijklmnopqrstuvwxyz+
(PID.TID 0000.0001) #/                  0.0: .
(PID.TID 0000.0001) #/ RANGE I (Lo:Hi:Step):(    -3:    54:     1)
(PID.TID 0000.0001) #/ RANGE J (Lo:Hi:Step):(    66:    -3:    -1)
(PID.TID 0000.0001) #/ RANGE K (Lo:Hi:Step):(   1:   1:   1)
(PID.TID 0000.0001) #/ =======================================================
(PID.TID 0000.0001) #/ =======================================================
(PID.TID 0000.0001) #/ END OF FIELD                                          =
(PID.TID 0000.0001) #/ =======================================================
(PID.TID 0000.0001) 
(PID.TID 0000.0001) DEBUG_MSG: CALLING S#R INI_MASKS_ETC
(PID.TID 0000.0001) #/ =======================================================
(PID.TID 0000.0001) #/ Field Model R_low (ini_masks_etc)
(PID.TID 0000.0001) #/ CMIN =         -2.329352630097360E+03
(PID.TID 0000.0001) #/ CMAX =         -1.356841626654470E+03
(PID.TID 0000.0001) #/ CINT =          3.601892605344037E+01
(PID.TID 0000.0001) #/ SYMBOLS (CMIN->CMAX): -abcdefghijklmnopqrstuvwxyz+
(PID.TID 0000.0001) #/                  0.0: .
(PID.TID 0000.0001) #/ RANGE I (Lo:Hi:Step):(    -3:    54:     1)
(PID.TID 0000.0001) #/ RANGE J (Lo:Hi:Step):(    66:    -3:    -1)
(PID.TID 0000.0001) #/ RANGE K (Lo:Hi:Step):(   1:   1:   1)
(PID.TID 0000.0001) #/ =======================================================
(PID.TID 0000.0001) K =   1
(PID.TID 0000.0001) #/                I=6       I=16      I=26      I=36      I=46
(PID.TID 0000.0001) #/ |--J--|321012345|789012345|789012345|789012345|789012345|78901234
(PID.TID 0000.0001) #/     66 ..........................................................
(PID.TID 0000.0001) #/     65 ..........................................................
(PID.TID 0000.0001) #/     64 ..........................................................
(PID.TID 0000.0001) #/     63 ..........................................................
(PID.TID 0000.0001) #/     62 ..........................................................
(PID.TID 0000.0001) #/     61 ..........................................................
(PID.TID 0000.0001) #/     60 ..........................................................
(PID.TID 0000.0001) #/     59 ..........................................................
(PID.TID 0000.0001) #/     58 ..........................................................
(PID.TID 0000.0001) #/     57 ..........................................................
(PID.TID 0000.0001) #/     56 ..........................................................
(PID.TID 0000.0001) #/     55 ..........................................................
(PID.TID 0000.0001) #/     54 ..........................................................
(PID.TID 0000.0001) #/     53 ..........................................................
(PID.TID 0000.0001) #/     52 ..........................................................
(PID.TID 0000.0001) #/     51 ..........................................................
(PID.TID 0000.0001) #/     50 ..........................................................
(PID.TID 0000.0001) #/     49 ..........................................................
(PID.TID 0000.0001) #/     48 ..........................................................
(PID.TID 0000.0001) #/     47 ..........................................................
(PID.TID 0000.0001) #/     46 ..........................................................
(PID.TID 0000.0001) #/     45 ..........................................................
(PID.TID 0000.0001) #/     44 ..........................................................
(PID.TID 0000.0001) #/     43 ..........................................................
(PID.TID 0000.0001) #/     42 ..........................................................
(PID.TID 0000.0001) #/     41 ..........................................................
(PID.TID 0000.0001) #/     40 ..........................................................
(PID.TID 0000.0001) #/     39 ..........................................................
(PID.TID 0000.0001) #/     38 ..........................................................
(PID.TID 0000.0001) #/     37 ..........................................................
(PID.TID 0000.0001) #/     36 ..........................................................
(PID.TID 0000.0001) #/     35 ..........................................................
(PID.TID 0000.0001) #/     34 ..........................................................
(PID.TID 0000.0001) #/     33 ..........................................................
(PID.TID 0000.0001) #/     32 ..........................................................
(PID.TID 0000.0001) #/     31 ..........................................................
(PID.TID 0000.0001) #/     30 ..........................................................
(PID.TID 0000.0001) #/     29 ..........................................................
(PID.TID 0000.0001) #/     28 ..........................................................
(PID.TID 0000.0001) #/     27 ..........................................................
(PID.TID 0000.0001) #/     26 ..........................................................
(PID.TID 0000.0001) #/     25 ..........................................................
(PID.TID 0000.0001) #/     24 ..........................................................
(PID.TID 0000.0001) #/     23 ..........................................................
(PID.TID 0000.0001) #/     22 ..........................................................
(PID.TID 0000.0001) #/     21 ..........................................................
(PID.TID 0000.0001) #/     20 ..........................................................
(PID.TID 0000.0001) #/     19 ..........................................................
(PID.TID 0000.0001) #/     18 ..........................................................
(PID.TID 0000.0001) #/     17 ..........................................................
(PID.TID 0000.0001) #/     16 ..........................................................
(PID.TID 0000.0001) #/     15 ..........................................................
(PID.TID 0000.0001) #/     14 ..........................................................
(PID.TID 0000.0001) #/     13 ..........................................................
(PID.TID 0000.0001) #/     12 ..........................................................
(PID.TID 0000.0001) #/     11 ..........................................................
(PID.TID 0000.0001) #/     10 ..........................................................
(PID.TID 0000.0001) #/      9 ..........................................................
(PID.TID 0000.0001) #/      8 ..........................................................
(PID.TID 0000.0001) #/      7 ..........................................................
(PID.TID 0000.0001) #/      6 ..........................................................
(PID.TID 0000.0001) #/      5 ..........................................................
(PID.TID 0000.0001) #/      4 ..........................................................
(PID.TID 0000.0001) #/      3 ..........................................................
(PID.TID 0000.0001) #/      2 ..........................................................
(PID.TID 0000.0001) #/      1 ..........................................................
(PID.TID 0000.0001) #/      0 skc-......................................................
(PID.TID 0000.0001) #/     -1 +uhf......................................................
(PID.TID 0000.0001) #/     -2 vskg......................................................
(PID.TID 0000.0001) #/     -3 kfek......................................................
(PID.TID 0000.0001) #/ =======================================================
(PID.TID 0000.0001) #/ END OF FIELD                                          =
(PID.TID 0000.0001) #/ =======================================================
(PID.TID 0000.0001) 
(PID.TID 0000.0001) #/ =======================================================
(PID.TID 0000.0001) #/ Field Model Ro_surf (ini_masks_etc)
(PID.TID 0000.0001) #/ CMIN =          1.000000000000000E+32
(PID.TID 0000.0001) #/ CMAX =         -1.000000000000000E+32
(PID.TID 0000.0001) #/ CINT =          0.000000000000000E+00
(PID.TID 0000.0001) #/ SYMBOLS (CMIN->CMAX): -abcdefghijklmnopqrstuvwxyz+
(PID.TID 0000.0001) #/                  0.0: .
(PID.TID 0000.0001) #/ RANGE I (Lo:Hi:Step):(    -3:    54:     1)
(PID.TID 0000.0001) #/ RANGE J (Lo:Hi:Step):(    66:    -3:    -1)
(PID.TID 0000.0001) #/ RANGE K (Lo:Hi:Step):(   1:   1:   1)
(PID.TID 0000.0001) #/ =======================================================
(PID.TID 0000.0001) #/ =======================================================
(PID.TID 0000.0001) #/ END OF FIELD                                          =
(PID.TID 0000.0001) #/ =======================================================
(PID.TID 0000.0001) 
(PID.TID 0000.0001) #/ =======================================================
(PID.TID 0000.0001) #/ Field hFacC at iteration          0
(PID.TID 0000.0001) #/ CMIN =          1.000000000000000E+00
(PID.TID 0000.0001) #/ CMAX =          1.000000000000000E+00
(PID.TID 0000.0001) #/ CINT =          0.000000000000000E+00
(PID.TID 0000.0001) #/ SYMBOLS (CMIN->CMAX): -abcdefghijklmnopqrstuvwxyz+
(PID.TID 0000.0001) #/                  0.0: .
(PID.TID 0000.0001) #/ RANGE I (Lo:Hi:Step):(    -3:    54:     1)
(PID.TID 0000.0001) #/ RANGE J (Lo:Hi:Step):(    66:    -3:    -1)
(PID.TID 0000.0001) #/ RANGE K (Lo:Hi:Step):(   1:   1:   1)
(PID.TID 0000.0001) #/ =======================================================
(PID.TID 0000.0001) #/ =======================================================
(PID.TID 0000.0001) #/ END OF FIELD                                          =
(PID.TID 0000.0001) #/ =======================================================
(PID.TID 0000.0001) 
(PID.TID 0000.0001) #/ =======================================================
(PID.TID 0000.0001) #/ Field hFacW at iteration          0
(PID.TID 0000.0001) #/ CMIN =          1.000000000000000E+00
(PID.TID 0000.0001) #/ CMAX =          1.000000000000000E+00
(PID.TID 0000.0001) #/ CINT =          0.000000000000000E+00
(PID.TID 0000.0001) #/ SYMBOLS (CMIN->CMAX): -abcdefghijklmnopqrstuvwxyz+
(PID.TID 0000.0001) #/                  0.0: .
(PID.TID 0000.0001) #/ RANGE I (Lo:Hi:Step):(    -3:    54:     1)
(PID.TID 0000.0001) #/ RANGE J (Lo:Hi:Step):(    66:    -3:    -1)
(PID.TID 0000.0001) #/ RANGE K (Lo:Hi:Step):(   1:   1:   1)
(PID.TID 0000.0001) #/ =======================================================
(PID.TID 0000.0001) #/ =======================================================
(PID.TID 0000.0001) #/ END OF FIELD                                          =
(PID.TID 0000.0001) #/ =======================================================
(PID.TID 0000.0001) 
(PID.TID 0000.0001) #/ =======================================================
(PID.TID 0000.0001) #/ Field hFacS at iteration          0
(PID.TID 0000.0001) #/ CMIN =          1.000000000000000E+00
(PID.TID 0000.0001) #/ CMAX =          1.000000000000000E+00
(PID.TID 0000.0001) #/ CINT =          0.000000000000000E+00
(PID.TID 0000.0001) #/ SYMBOLS (CMIN->CMAX): -abcdefghijklmnopqrstuvwxyz+
(PID.TID 0000.0001) #/                  0.0: .
(PID.TID 0000.0001) #/ RANGE I (Lo:Hi:Step):(    -3:    54:     1)
(PID.TID 0000.0001) #/ RANGE J (Lo:Hi:Step):(    66:    -3:    -1)
(PID.TID 0000.0001) #/ RANGE K (Lo:Hi:Step):(   1:   1:   1)
(PID.TID 0000.0001) #/ =======================================================
(PID.TID 0000.0001) #/ =======================================================
(PID.TID 0000.0001) #/ END OF FIELD                                          =
(PID.TID 0000.0001) #/ =======================================================
(PID.TID 0000.0001) 
(PID.TID 0000.0001) DEBUG_MSG: CALLING S#R PACKAGES_INIT_FIXED
(PID.TID 0000.0001) DEBUG_MSG: ENTERED S#R PACKAGES_INIT_FIXED
(PID.TID 0000.0001) DEBUG_MSG: CALLING S#R GAD_INIT_FIXED
(PID.TID 0000.0001) GAD_INIT_FIXED: GAD_OlMinSize=  2  0  1
(PID.TID 0000.0001) 
(PID.TID 0000.0001) #/ ===================================
(PID.TID 0000.0001) #/ GAD parameters :
(PID.TID 0000.0001) #/ ===================================
(PID.TID 0000.0001) tempAdvScheme =   #* Temp. Horiz.Advection scheme selector */
(PID.TID 0000.0001)                      33
(PID.TID 0000.0001)     ;
(PID.TID 0000.0001) tempVertAdvScheme =   #* Temp. Vert. Advection scheme selector */
(PID.TID 0000.0001)                       3
(PID.TID 0000.0001)     ;
(PID.TID 0000.0001) tempMultiDimAdvec =   #* use Muti-Dim Advec method for Temp */
(PID.TID 0000.0001)                   T
(PID.TID 0000.0001)     ;
(PID.TID 0000.0001) tempSOM_Advection = #* use 2nd Order Moment Advection for Temp */
(PID.TID 0000.0001)                   F
(PID.TID 0000.0001)     ;
(PID.TID 0000.0001) AdamsBashforthGt = #* apply Adams-Bashforth extrapolation on Gt */
(PID.TID 0000.0001)                   F
(PID.TID 0000.0001)     ;
(PID.TID 0000.0001) AdamsBashforth_T = #* apply Adams-Bashforth extrapolation on Temp */
(PID.TID 0000.0001)                   F
(PID.TID 0000.0001)     ;
(PID.TID 0000.0001) saltAdvScheme =   #* Salt. Horiz.advection scheme selector */
(PID.TID 0000.0001)                      33
(PID.TID 0000.0001)     ;
(PID.TID 0000.0001) saltVertAdvScheme =   #* Salt. Vert. Advection scheme selector */
(PID.TID 0000.0001)                       3
(PID.TID 0000.0001)     ;
(PID.TID 0000.0001) saltMultiDimAdvec =   #* use Muti-Dim Advec method for Salt */
(PID.TID 0000.0001)                   T
(PID.TID 0000.0001)     ;
(PID.TID 0000.0001) saltSOM_Advection = #* use 2nd Order Moment Advection for Salt */
(PID.TID 0000.0001)                   F
(PID.TID 0000.0001)     ;
(PID.TID 0000.0001) AdamsBashforthGs = #* apply Adams-Bashforth extrapolation on Gs */
(PID.TID 0000.0001)                   F
(PID.TID 0000.0001)     ;
(PID.TID 0000.0001) AdamsBashforth_S = #* apply Adams-Bashforth extrapolation on Salt */
(PID.TID 0000.0001)                   F
(PID.TID 0000.0001)     ;
(PID.TID 0000.0001) #/ ===================================
(PID.TID 0000.0001) DEBUG_MSG: CALLING S#R MOM_INIT_FIXED
(PID.TID 0000.0001) DEBUG_MSG: LEAVING S#R PACKAGES_INIT_FIXED
(PID.TID 0000.0001) DEBUG_MSG: CALLING S#R INI_GLOBAL_DOMAIN
(PID.TID 0000.0001) Empty tile bi,bj=     1     1
(PID.TID 0000.0001) 
(PID.TID 0000.0001) DEBUG_MSG: CALLING S#R INI_LINEAR_PHISURF
(PID.TID 0000.0001) DEBUG_MSG: CALLING S#R INI_CORI
(PID.TID 0000.0001) %MON fCori_max                    =  -7.3008527179148E-05
(PID.TID 0000.0001) %MON fCori_min                    =  -1.4509260029691E-04
(PID.TID 0000.0001) %MON fCori_mean                   =  -1.2872217802016E-04
(PID.TID 0000.0001) %MON fCori_sd                     =   1.9189777898223E-05
(PID.TID 0000.0001) %MON fCoriG_max                   =  -7.3246840437809E-05
(PID.TID 0000.0001) %MON fCoriG_min                   =  -1.4509586026901E-04
(PID.TID 0000.0001) %MON fCoriG_mean                  =  -1.2878693337685E-04
(PID.TID 0000.0001) %MON fCoriG_sd                    =   1.9122989598898E-05
(PID.TID 0000.0001) %MON fCoriCos_max                 =   1.2625284596376E-04
(PID.TID 0000.0001) %MON fCoriCos_min                 =   1.4770358624604E-05
(PID.TID 0000.0001) %MON fCoriCos_mean                =   5.6735967046750E-05
(PID.TID 0000.0001) %MON fCoriCos_sd                  =   3.3367791476983E-05
(PID.TID 0000.0001) DEBUG_MSG: CALLING S#R INI_CG2D
(PID.TID 0000.0001) INI_CG2D: CG2D normalisation factor =  1.6666666876387912E-04
(PID.TID 0000.0001) 
(PID.TID 0000.0001) DEBUG_MSG: CALLING S#R CONFIG_SUMMARY
(PID.TID 0000.0001) #/ =======================================================
(PID.TID 0000.0001) #/ Model configuration
(PID.TID 0000.0001) #/ =======================================================
(PID.TID 0000.0001) #/
(PID.TID 0000.0001) #/ "Physical" paramters ( PARM01 in namelist )
(PID.TID 0000.0001) #/
(PID.TID 0000.0001) buoyancyRelation = #* Type of relation to get Buoyancy */
(PID.TID 0000.0001)               'OCEANIC'
(PID.TID 0000.0001)     ;
(PID.TID 0000.0001) fluidIsAir   =  #* fluid major constituent is Air */
(PID.TID 0000.0001)                   F
(PID.TID 0000.0001)     ;
(PID.TID 0000.0001) fluidIsWater =  #* fluid major constituent is Water */
(PID.TID 0000.0001)                   T
(PID.TID 0000.0001)     ;
(PID.TID 0000.0001) usingPCoords =  #* use p (or p*) vertical coordinate */
(PID.TID 0000.0001)                   F
(PID.TID 0000.0001)     ;
(PID.TID 0000.0001) usingZCoords =  #* use z (or z*) vertical coordinate */
(PID.TID 0000.0001)                   T
(PID.TID 0000.0001)     ;
(PID.TID 0000.0001) tRef =   #* Reference temperature profile ( oC or K ) */
(PID.TID 0000.0001)   100 @  2.000000000000000E+01              /* K =  1:100 */
(PID.TID 0000.0001)     ;
(PID.TID 0000.0001) sRef =   #* Reference salinity profile ( g/kg ) */
(PID.TID 0000.0001)   100 @  3.000000000000000E+01              /* K =  1:100 */
(PID.TID 0000.0001)     ;
(PID.TID 0000.0001) useStrainTensionVisc= #* Use StrainTension Form of Viscous Operator */
(PID.TID 0000.0001)                   F
(PID.TID 0000.0001)     ;
(PID.TID 0000.0001) useVariableVisc = #* Use variable horizontal viscosity */
(PID.TID 0000.0001)                   T
(PID.TID 0000.0001)     ;
(PID.TID 0000.0001) useHarmonicVisc = #* Use harmonic horizontal viscosity */
(PID.TID 0000.0001)                   F
(PID.TID 0000.0001)     ;
(PID.TID 0000.0001) useBiharmonicVisc= #* Use biharmonic horiz.  viscosity */
(PID.TID 0000.0001)                   T
(PID.TID 0000.0001)     ;
(PID.TID 0000.0001) useSmag3D = #* Use isotropic 3-D Smagorinsky viscosity */
(PID.TID 0000.0001)                   F
(PID.TID 0000.0001)     ;
(PID.TID 0000.0001) viscAh  =   #* Lateral harmonic viscosity ( m^2/s ) */
(PID.TID 0000.0001)                 0.000000000000000E+00
(PID.TID 0000.0001)     ;
(PID.TID 0000.0001) viscAhMax = #* Maximum lateral harmonic viscosity ( m^2/s ) */
(PID.TID 0000.0001)                 1.000000000000000E+21
(PID.TID 0000.0001)     ;
(PID.TID 0000.0001) viscAhGrid = #* Grid dependent lateral harmonic viscosity ( non-dim. ) */
(PID.TID 0000.0001)                 0.000000000000000E+00
(PID.TID 0000.0001)     ;
(PID.TID 0000.0001) useFullLeith = #* Use Full Form of Leith Viscosity on/off flag*/
(PID.TID 0000.0001)                   F
(PID.TID 0000.0001)     ;
(PID.TID 0000.0001) useAreaViscLength = #* Use area for visc length instead of geom. mean*/
(PID.TID 0000.0001)                   T
(PID.TID 0000.0001)     ;
(PID.TID 0000.0001) viscC2leith = #* Leith harmonic visc. factor (on grad(vort),non-dim.) */
(PID.TID 0000.0001)                 0.000000000000000E+00
(PID.TID 0000.0001)     ;
(PID.TID 0000.0001) viscC2leithD = #* Leith harmonic viscosity factor (on grad(div),non-dim.)*/
(PID.TID 0000.0001)                 0.000000000000000E+00
(PID.TID 0000.0001)     ;
(PID.TID 0000.0001) viscC2LeithQG = #* QG Leith harmonic viscosity factor (non-dim.)*/
(PID.TID 0000.0001)                 0.000000000000000E+00
(PID.TID 0000.0001)     ;
(PID.TID 0000.0001) viscC2smag = #* Smagorinsky harmonic viscosity factor (non-dim.) */
(PID.TID 0000.0001)                 0.000000000000000E+00
(PID.TID 0000.0001)     ;
(PID.TID 0000.0001) viscA4  =   #* Lateral biharmonic viscosity ( m^4/s ) */
(PID.TID 0000.0001)                 1.000000000000000E+08
(PID.TID 0000.0001)     ;
(PID.TID 0000.0001) viscA4Max = #* Maximum biharmonic viscosity ( m^2/s ) */
(PID.TID 0000.0001)                 1.000000000000000E+21
(PID.TID 0000.0001)     ;
(PID.TID 0000.0001) viscA4Grid = #* Grid dependent biharmonic viscosity ( non-dim. ) */
(PID.TID 0000.0001)                 0.000000000000000E+00
(PID.TID 0000.0001)     ;
(PID.TID 0000.0001) viscC4leith = #* Leith biharm viscosity factor (on grad(vort), non-dim.)*/
(PID.TID 0000.0001)                 2.000000000000000E+00
(PID.TID 0000.0001)     ;
(PID.TID 0000.0001) viscC4leithD = #* Leith biharm viscosity factor (on grad(div), non-dim.) */
(PID.TID 0000.0001)                 2.000000000000000E+00
(PID.TID 0000.0001)     ;
(PID.TID 0000.0001) viscC4Smag = #* Smagorinsky biharm viscosity factor (non-dim) */
(PID.TID 0000.0001)                 0.000000000000000E+00
(PID.TID 0000.0001)     ;
(PID.TID 0000.0001) no_slip_sides =  #* Viscous BCs: No-slip sides */
(PID.TID 0000.0001)                   F
(PID.TID 0000.0001)     ;
(PID.TID 0000.0001) sideDragFactor = #* side-drag scaling factor (non-dim) */
(PID.TID 0000.0001)                 2.000000000000000E+00
(PID.TID 0000.0001)     ;
(PID.TID 0000.0001) viscArNr = #* vertical profile of vertical viscosity ( m^2#s )*/
(PID.TID 0000.0001)   100 @  1.000000000000000E-05              /* K =  1:100 */
(PID.TID 0000.0001)     ;
(PID.TID 0000.0001) no_slip_bottom =  #* Viscous BCs: No-slip bottom */
(PID.TID 0000.0001)                   F
(PID.TID 0000.0001)     ;
(PID.TID 0000.0001) bottomVisc_pCell = #* Partial-cell in bottom Visc. BC */
(PID.TID 0000.0001)                   F
(PID.TID 0000.0001)     ;
(PID.TID 0000.0001) bottomDragLinear = #* linear bottom-drag coefficient ( m/s ) */
(PID.TID 0000.0001)                 0.000000000000000E+00
(PID.TID 0000.0001)     ;
(PID.TID 0000.0001) bottomDragQuadratic = #* quadratic bottom-drag coefficient (-) */
(PID.TID 0000.0001)                 2.000000000000000E-03
(PID.TID 0000.0001)     ;
(PID.TID 0000.0001) selectBotDragQuadr = #* select quadratic bottom drag options */
(PID.TID 0000.0001)                       0
(PID.TID 0000.0001)     ;
(PID.TID 0000.0001) diffKhT =   #* Laplacian diffusion of heat laterally ( m^2/s ) */
(PID.TID 0000.0001)                 0.000000000000000E+00
(PID.TID 0000.0001)     ;
(PID.TID 0000.0001) diffK4T =   #* Biharmonic diffusion of heat laterally ( m^4/s ) */
(PID.TID 0000.0001)                 1.000000000000000E+08
(PID.TID 0000.0001)     ;
(PID.TID 0000.0001) diffKhS =   #* Laplacian diffusion of salt laterally ( m^2/s ) */
(PID.TID 0000.0001)                 0.000000000000000E+00
(PID.TID 0000.0001)     ;
(PID.TID 0000.0001) diffK4S =   #* Biharmonic diffusion of salt laterally ( m^4/s ) */
(PID.TID 0000.0001)                 1.000000000000000E+08
(PID.TID 0000.0001)     ;
(PID.TID 0000.0001) diffKrNrT = #* vertical profile of vertical diffusion of Temp ( m^2#s )*/
(PID.TID 0000.0001)   100 @  1.000000000000000E-05              /* K =  1:100 */
(PID.TID 0000.0001)     ;
(PID.TID 0000.0001) diffKrNrS = #* vertical profile of vertical diffusion of Salt ( m^2#s )*/
(PID.TID 0000.0001)   100 @  1.000000000000000E-05              /* K =  1:100 */
(PID.TID 0000.0001)     ;
(PID.TID 0000.0001) diffKrBL79surf = #* Surface diffusion for Bryan and Lewis 79 ( m^2/s ) */
(PID.TID 0000.0001)                 0.000000000000000E+00
(PID.TID 0000.0001)     ;
(PID.TID 0000.0001) diffKrBL79deep = #* Deep diffusion for Bryan and Lewis 1979 ( m^2/s ) */
(PID.TID 0000.0001)                 0.000000000000000E+00
(PID.TID 0000.0001)     ;
(PID.TID 0000.0001) diffKrBL79scl = #* Depth scale for Bryan and Lewis 1979 ( m ) */
(PID.TID 0000.0001)                 2.000000000000000E+02
(PID.TID 0000.0001)     ;
(PID.TID 0000.0001) diffKrBL79Ho = #* Turning depth for Bryan and Lewis 1979 ( m ) */
(PID.TID 0000.0001)                -2.000000000000000E+03
(PID.TID 0000.0001)     ;
(PID.TID 0000.0001) ivdc_kappa = #* Implicit Vertical Diffusivity for Convection ( m^2#s) */
(PID.TID 0000.0001)                 1.000000000000000E+01
(PID.TID 0000.0001)     ;
(PID.TID 0000.0001) hMixCriteria=  #* Criteria for mixed-layer diagnostic */
(PID.TID 0000.0001)                -8.000000000000000E-01
(PID.TID 0000.0001)     ;
(PID.TID 0000.0001) dRhoSmall =  #* Parameter for mixed-layer diagnostic */
(PID.TID 0000.0001)                 1.000000000000000E-06
(PID.TID 0000.0001)     ;
(PID.TID 0000.0001) hMixSmooth=  #* Smoothing parameter for mixed-layer diagnostic */
(PID.TID 0000.0001)                 0.000000000000000E+00
(PID.TID 0000.0001)     ;
(PID.TID 0000.0001) eosType =  #* Type of Equation of State */
(PID.TID 0000.0001)               'JMD95Z'
(PID.TID 0000.0001)     ;
(PID.TID 0000.0001) eosRefP0 = #* Reference atmospheric pressure for EOS ( Pa ) */
(PID.TID 0000.0001)                 1.013250000000000E+05
(PID.TID 0000.0001)     ;
(PID.TID 0000.0001) selectP_inEOS_Zc = #* select pressure to use in EOS (0,1,2,3) */
(PID.TID 0000.0001)                       0
(PID.TID 0000.0001)     0= -g*rhoConst*z ; 1= pRef (from tRef,sRef); 2= Hyd P ; 3= Hyd+NH P
(PID.TID 0000.0001)     ;
(PID.TID 0000.0001) surf_pRef = #* Surface reference pressure ( Pa ) */
(PID.TID 0000.0001)                 1.013250000000000E+05
(PID.TID 0000.0001)     ;
(PID.TID 0000.0001) HeatCapacity_Cp =  #* Specific heat capacity ( J/kg/K ) */
(PID.TID 0000.0001)                 3.994000000000000E+03
(PID.TID 0000.0001)     ;
(PID.TID 0000.0001) celsius2K = #* 0 degree Celsius converted to Kelvin ( K ) */
(PID.TID 0000.0001)                 2.731500000000000E+02
(PID.TID 0000.0001)     ;
(PID.TID 0000.0001) rhoConst  = #* Reference density (Boussinesq)  ( kg/m^3 ) */
(PID.TID 0000.0001)                 1.035000000000000E+03
(PID.TID 0000.0001)     ;
(PID.TID 0000.0001) rhoFacC = #* normalized Reference density @ cell-Center (-) */
(PID.TID 0000.0001)   100 @  1.000000000000000E+00              /* K =  1:100 */
(PID.TID 0000.0001)     ;
(PID.TID 0000.0001) rhoFacF = #* normalized Reference density @ W-Interface (-) */
(PID.TID 0000.0001)   101 @  1.000000000000000E+00              /* K =  1:101 */
(PID.TID 0000.0001)     ;
(PID.TID 0000.0001) rhoConstFresh = #* Fresh-water reference density ( kg/m^3 ) */
(PID.TID 0000.0001)                 1.000000000000000E+03
(PID.TID 0000.0001)     ;
(PID.TID 0000.0001) gravity =   #* Gravitational acceleration ( m/s^2 ) */
(PID.TID 0000.0001)                 9.810000000000000E+00
(PID.TID 0000.0001)     ;
(PID.TID 0000.0001) gBaro =   #* Barotropic gravity ( m/s^2 ) */
(PID.TID 0000.0001)                 9.810000000000000E+00
(PID.TID 0000.0001)     ;
(PID.TID 0000.0001) gravFacC = #* gravity factor (vs surf.) @ cell-Center (-) */
(PID.TID 0000.0001)   100 @  1.000000000000000E+00              /* K =  1:100 */
(PID.TID 0000.0001)     ;
(PID.TID 0000.0001) gravFacF = #* gravity factor (vs surf.) @ W-Interface (-) */
(PID.TID 0000.0001)   101 @  1.000000000000000E+00              /* K =  1:101 */
(PID.TID 0000.0001)     ;
(PID.TID 0000.0001) rotationPeriod =   #* Rotation Period ( s ) */
(PID.TID 0000.0001)                 8.616400000000000E+04
(PID.TID 0000.0001)     ;
(PID.TID 0000.0001) omega =   #* Angular velocity ( rad/s ) */
(PID.TID 0000.0001)                 7.292123516990375E-05
(PID.TID 0000.0001)     ;
(PID.TID 0000.0001) f0 =   #* Reference coriolis parameter ( 1/s ) */
(PID.TID 0000.0001)                 1.000000000000000E-04
(PID.TID 0000.0001)     ;
(PID.TID 0000.0001) beta =   #* Beta ( 1/(m.s) ) */
(PID.TID 0000.0001)                 9.999999999999999E-12
(PID.TID 0000.0001)     ;
(PID.TID 0000.0001) fPrime =   #* Second coriolis parameter ( 1/s ) */
(PID.TID 0000.0001)                 0.000000000000000E+00
(PID.TID 0000.0001)     ;
(PID.TID 0000.0001) rigidLid =   #* Rigid lid on/off flag */
(PID.TID 0000.0001)                   F
(PID.TID 0000.0001)     ;
(PID.TID 0000.0001) implicitFreeSurface =   #* Implicit free surface on/off flag */
(PID.TID 0000.0001)                   T
(PID.TID 0000.0001)     ;
(PID.TID 0000.0001) freeSurfFac =   #* Implicit free surface factor */
(PID.TID 0000.0001)                 1.000000000000000E+00
(PID.TID 0000.0001)     ;
(PID.TID 0000.0001) implicSurfPress =  #* Surface Pressure implicit factor (0-1)*/
(PID.TID 0000.0001)                 1.000000000000000E+00
(PID.TID 0000.0001)     ;
(PID.TID 0000.0001) implicDiv2DFlow =  #* Barot. Flow Div. implicit factor (0-1)*/
(PID.TID 0000.0001)                 1.000000000000000E+00
(PID.TID 0000.0001)     ;
(PID.TID 0000.0001) uniformLin_PhiSurf = #* use uniform Bo_surf on/off flag*/
(PID.TID 0000.0001)                   T
(PID.TID 0000.0001)     ;
(PID.TID 0000.0001) uniformFreeSurfLev = #* free-surface level-index is uniform */
(PID.TID 0000.0001)                   T
(PID.TID 0000.0001)     ;
(PID.TID 0000.0001) hFacMin =   #* minimum partial cell factor (hFac) */
(PID.TID 0000.0001)                 1.000000000000000E-01
(PID.TID 0000.0001)     ;
(PID.TID 0000.0001) hFacMinDr = #* minimum partial cell thickness ( m) *#
(PID.TID 0000.0001)                 2.000000000000000E+01
(PID.TID 0000.0001)     ;
(PID.TID 0000.0001) exactConserv =  #* Exact Volume Conservation on/off flag*/
(PID.TID 0000.0001)                   F
(PID.TID 0000.0001)     ;
(PID.TID 0000.0001) linFSConserveTr = #* Tracer correction for Lin Free Surface on/off flag*/
(PID.TID 0000.0001)                   F
(PID.TID 0000.0001)     ;
(PID.TID 0000.0001) nonlinFreeSurf = #* Non-linear Free Surf. options (-1,0,1,2,3)*/
(PID.TID 0000.0001)                       0
(PID.TID 0000.0001)      -1,0= Off ; 1,2,3= On, 2=+rescale gU,gV, 3=+update cg2d solv.
(PID.TID 0000.0001)     ;
(PID.TID 0000.0001) hFacInf =   #* lower threshold for hFac (nonlinFreeSurf only)*/
(PID.TID 0000.0001)                 2.000000000000000E-01
(PID.TID 0000.0001)     ;
(PID.TID 0000.0001) hFacSup =   #* upper threshold for hFac (nonlinFreeSurf only)*/
(PID.TID 0000.0001)                 2.000000000000000E+00
(PID.TID 0000.0001)     ;
(PID.TID 0000.0001) select_rStar = #* r* Vertical coord. options (=0 r coord.; >0 uses r*)*/
(PID.TID 0000.0001)                       0
(PID.TID 0000.0001)     ;
(PID.TID 0000.0001) useRealFreshWaterFlux = #* Real Fresh Water Flux on/off flag*/
(PID.TID 0000.0001)                   F
(PID.TID 0000.0001)     ;
(PID.TID 0000.0001) temp_EvPrRn = #* Temp. of Evap/Prec/R (UNSET=use local T)(oC)*/
(PID.TID 0000.0001)                 1.234567000000000E+05
(PID.TID 0000.0001)     ;
(PID.TID 0000.0001) salt_EvPrRn = #* Salin. of Evap/Prec/R (UNSET=use local S)(g/kg)*/
(PID.TID 0000.0001)                 0.000000000000000E+00
(PID.TID 0000.0001)     ;
(PID.TID 0000.0001) selectAddFluid = #* option for mass source/sink of fluid (=0: off) */
(PID.TID 0000.0001)                       0
(PID.TID 0000.0001)     ;
(PID.TID 0000.0001) temp_addMass = #* Temp. of addMass array (UNSET=use local T)(oC)*/
(PID.TID 0000.0001)                 1.234567000000000E+05
(PID.TID 0000.0001)     ;
(PID.TID 0000.0001) salt_addMass = #* Salin. of addMass array (UNSET=use local S)(g/kg)*/
(PID.TID 0000.0001)                 0.000000000000000E+00
(PID.TID 0000.0001)     ;
(PID.TID 0000.0001) convertFW2Salt = #* convert F.W. Flux to Salt Flux (-1=use local S)(g/kg)*/
(PID.TID 0000.0001)                -1.000000000000000E+00
(PID.TID 0000.0001)     ;
(PID.TID 0000.0001) use3Dsolver = #* use 3-D pressure solver on/off flag */
(PID.TID 0000.0001)                   F
(PID.TID 0000.0001)     ;
(PID.TID 0000.0001) nonHydrostatic =  #* Non-Hydrostatic on/off flag */
(PID.TID 0000.0001)                   F
(PID.TID 0000.0001)     ;
(PID.TID 0000.0001) nh_Am2 = #* Non-Hydrostatic terms scaling factor */
(PID.TID 0000.0001)                 1.000000000000000E+00
(PID.TID 0000.0001)     ;
(PID.TID 0000.0001) implicitNHPress = #* Non-Hyd Pressure implicit factor (0-1)*/
(PID.TID 0000.0001)                 1.000000000000000E+00
(PID.TID 0000.0001)     ;
(PID.TID 0000.0001) selectNHfreeSurf = #* Non-Hyd (free-)Surface option */
(PID.TID 0000.0001)                       0
(PID.TID 0000.0001)     ;
(PID.TID 0000.0001) quasiHydrostatic = #* Quasi-Hydrostatic on/off flag */
(PID.TID 0000.0001)                   F
(PID.TID 0000.0001)     ;
(PID.TID 0000.0001) calc_wVelocity = #* vertical velocity calculation on/off flag */
(PID.TID 0000.0001)                   T
(PID.TID 0000.0001)     ;
(PID.TID 0000.0001) momStepping =  #* Momentum equation on/off flag */
(PID.TID 0000.0001)                   T
(PID.TID 0000.0001)     ;
(PID.TID 0000.0001) vectorInvariantMomentum= #* Vector-Invariant Momentum on/off */
(PID.TID 0000.0001)                   T
(PID.TID 0000.0001)     ;
(PID.TID 0000.0001) momAdvection =  #* Momentum advection on/off flag */
(PID.TID 0000.0001)                   T
(PID.TID 0000.0001)     ;
(PID.TID 0000.0001) momViscosity =  #* Momentum viscosity on/off flag */
(PID.TID 0000.0001)                   T
(PID.TID 0000.0001)     ;
(PID.TID 0000.0001) momImplVertAdv= #* Momentum implicit vert. advection on/off*/
(PID.TID 0000.0001)                   F
(PID.TID 0000.0001)     ;
(PID.TID 0000.0001) implicitViscosity = #* Implicit viscosity on/off flag */
(PID.TID 0000.0001)                   T
(PID.TID 0000.0001)     ;
(PID.TID 0000.0001) selectImplicitDrag= #* Implicit bot Drag options (0,1,2)*/
(PID.TID 0000.0001)                       0
(PID.TID 0000.0001)     0= Expl. ; 1= Impl. on provis. Vel ; 2= Fully Impl (with surf.P)
(PID.TID 0000.0001)     ;
(PID.TID 0000.0001) metricTerms =  #* metric-Terms on/off flag */
(PID.TID 0000.0001)                   T
(PID.TID 0000.0001)     ;
(PID.TID 0000.0001) useNHMTerms = #* Non-Hydrostatic Metric-Terms on/off */
(PID.TID 0000.0001)                   F
(PID.TID 0000.0001)     ;
(PID.TID 0000.0001) selectCoriMap = #* Coriolis Map options (0,1,2,3)*/
(PID.TID 0000.0001)                       2
(PID.TID 0000.0001)     0= f-Plane ; 1= Beta-Plane ; 2= Spherical ; 3= read from file
(PID.TID 0000.0001)     ;
(PID.TID 0000.0001) use3dCoriolis = #* 3-D Coriolis on/off flag */
(PID.TID 0000.0001)                   F
(PID.TID 0000.0001)     ;
(PID.TID 0000.0001) useCoriolis =  #* Coriolis on/off flag */
(PID.TID 0000.0001)                   T
(PID.TID 0000.0001)     ;
(PID.TID 0000.0001) useCDscheme =  #* CD scheme on/off flag */
(PID.TID 0000.0001)                   F
(PID.TID 0000.0001)     ;
(PID.TID 0000.0001) selectCoriScheme= #* Scheme selector for Coriolis-Term */
(PID.TID 0000.0001)                       0
(PID.TID 0000.0001)    = 0 : original discretization (simple averaging, no hFac)
(PID.TID 0000.0001)    = 1 : Wet-point averaging (Jamar & Ozer 1986)
(PID.TID 0000.0001)    = 2 : hFac weighted average (Angular Mom. conserving)
(PID.TID 0000.0001)    = 3 : energy conserving scheme using hFac weighted average
(PID.TID 0000.0001)     ;
(PID.TID 0000.0001) useAbsVorticity= #* V.I Works with f+zeta in Coriolis */
(PID.TID 0000.0001)                   F
(PID.TID 0000.0001)     ;
(PID.TID 0000.0001) selectVortScheme= #* V.I Scheme selector for Vorticity-Term */
(PID.TID 0000.0001)                       0
(PID.TID 0000.0001)    = 0 : enstrophy (Shallow-Water Eq.) conserving scheme by Sadourny, JAS 75
(PID.TID 0000.0001)    = 1 : same as 0 with modified hFac
(PID.TID 0000.0001)    = 2 : energy conserving scheme (used by Sadourny in JAS 75 paper)
(PID.TID 0000.0001)    = 3 : energy (general) and enstrophy (2D, nonDiv.) conserving scheme
(PID.TID 0000.0001)          from Sadourny (Burridge & Haseler, ECMWF Rep.4, 1977)
(PID.TID 0000.0001)     ;
(PID.TID 0000.0001) useJamartMomAdv= #* V.I Non-linear terms Jamart flag */
(PID.TID 0000.0001)                   F
(PID.TID 0000.0001)     ;
(PID.TID 0000.0001) upwindVorticity= #* V.I Upwind bias vorticity flag */
(PID.TID 0000.0001)                   F
(PID.TID 0000.0001)     ;
(PID.TID 0000.0001) highOrderVorticity= #* V.I High order vort. advect. flag */
(PID.TID 0000.0001)                   T
(PID.TID 0000.0001)     ;
(PID.TID 0000.0001) upwindShear= #* V.I Upwind vertical Shear advection flag */
(PID.TID 0000.0001)                   F
(PID.TID 0000.0001)     ;
(PID.TID 0000.0001) selectKEscheme= #* V.I Kinetic Energy scheme selector */
(PID.TID 0000.0001)                       0
(PID.TID 0000.0001)     ;
(PID.TID 0000.0001) momForcing =  #* Momentum forcing on/off flag */
(PID.TID 0000.0001)                   T
(PID.TID 0000.0001)     ;
(PID.TID 0000.0001) momTidalForcing = #* Momentum Tidal forcing on/off flag */
(PID.TID 0000.0001)                   T
(PID.TID 0000.0001)     ;
(PID.TID 0000.0001) momPressureForcing =  #* Momentum pressure term on/off flag */
(PID.TID 0000.0001)                   T
(PID.TID 0000.0001)     ;
(PID.TID 0000.0001) implicitIntGravWave= #* Implicit Internal Gravity Wave flag */
(PID.TID 0000.0001)                   F
(PID.TID 0000.0001)     ;
(PID.TID 0000.0001) staggerTimeStep =    #* Stagger time stepping on/off flag */
(PID.TID 0000.0001)                   T
(PID.TID 0000.0001)     ;
(PID.TID 0000.0001) doResetHFactors = #* reset thickness factors @ each time-step */
(PID.TID 0000.0001)                   T
(PID.TID 0000.0001)     ;
(PID.TID 0000.0001) multiDimAdvection =  #* enable/disable Multi-Dim Advection */
(PID.TID 0000.0001)                   T
(PID.TID 0000.0001)     ;
(PID.TID 0000.0001) useMultiDimAdvec =   #* Multi-Dim Advection is/is-not used */
(PID.TID 0000.0001)                   T
(PID.TID 0000.0001)     ;
(PID.TID 0000.0001) implicitDiffusion = #* Implicit Diffusion on/off flag */
(PID.TID 0000.0001)                   T
(PID.TID 0000.0001)     ;
(PID.TID 0000.0001) tempStepping =  #* Temperature equation on/off flag */
(PID.TID 0000.0001)                   T
(PID.TID 0000.0001)     ;
(PID.TID 0000.0001) tempAdvection = #* Temperature advection on/off flag */
(PID.TID 0000.0001)                   T
(PID.TID 0000.0001)     ;
(PID.TID 0000.0001) tempImplVertAdv = #* Temp. implicit vert. advection on/off */
(PID.TID 0000.0001)                   T
(PID.TID 0000.0001)     ;
(PID.TID 0000.0001) tempForcing  =  #* Temperature forcing on/off flag */
(PID.TID 0000.0001)                   T
(PID.TID 0000.0001)     ;
(PID.TID 0000.0001) doThetaClimRelax = #* apply SST relaxation on/off flag */
(PID.TID 0000.0001)                   F
(PID.TID 0000.0001)     ;
(PID.TID 0000.0001) tempIsActiveTr = #* Temp. is a dynamically Active Tracer */
(PID.TID 0000.0001)                   T
(PID.TID 0000.0001)     ;
(PID.TID 0000.0001) saltStepping =  #* Salinity equation on/off flag */
(PID.TID 0000.0001)                   T
(PID.TID 0000.0001)     ;
(PID.TID 0000.0001) saltAdvection = #* Salinity advection on/off flag */
(PID.TID 0000.0001)                   T
(PID.TID 0000.0001)     ;
(PID.TID 0000.0001) saltImplVertAdv = #* Sali. implicit vert. advection on/off */
(PID.TID 0000.0001)                   T
(PID.TID 0000.0001)     ;
(PID.TID 0000.0001) saltForcing  =  #* Salinity forcing on/off flag */
(PID.TID 0000.0001)                   T
(PID.TID 0000.0001)     ;
(PID.TID 0000.0001) doSaltClimRelax = #* apply SSS relaxation on/off flag */
(PID.TID 0000.0001)                   F
(PID.TID 0000.0001)     ;
(PID.TID 0000.0001) saltIsActiveTr = #* Salt  is a dynamically Active Tracer */
(PID.TID 0000.0001)                   T
(PID.TID 0000.0001)     ;
(PID.TID 0000.0001)  readBinaryPrec = #* Precision used for reading binary files */
(PID.TID 0000.0001)                      64
(PID.TID 0000.0001)     ;
(PID.TID 0000.0001) writeBinaryPrec = #* Precision used for writing binary files */
(PID.TID 0000.0001)                      64
(PID.TID 0000.0001)     ;
(PID.TID 0000.0001)  rwSuffixType =   #* select format of mds file suffix */
(PID.TID 0000.0001)                       0
(PID.TID 0000.0001)    = 0 : myIter (I10.10) ;   = 1 : 100*myTime (100th sec) ;
(PID.TID 0000.0001)    = 2 : myTime (seconds);   = 3 : myTime#360 (10th of hr);
(PID.TID 0000.0001)    = 4 : myTime#3600 (hours)
(PID.TID 0000.0001)     ;
(PID.TID 0000.0001)  globalFiles = #* write "global" (=not per tile) files */
(PID.TID 0000.0001)                   F
(PID.TID 0000.0001)     ;
(PID.TID 0000.0001)  useSingleCpuIO = #* only master MPI process does I/O */
(PID.TID 0000.0001)                   T
(PID.TID 0000.0001)     ;
(PID.TID 0000.0001)  useSingleCpuInput = #* only master process reads input */
(PID.TID 0000.0001)                   T
(PID.TID 0000.0001)     ;
(PID.TID 0000.0001) #* debLev[*]  : level of debug & auxiliary message printing *#
(PID.TID 0000.0001) debLevZero =  0 ; #* level of disabled aux. msg printing */
(PID.TID 0000.0001)    debLevA =  1 ; #* level of minimum  aux. msg printing */
(PID.TID 0000.0001)    debLevB =  2 ; #* level of low aux. print (report read-file opening)*/
(PID.TID 0000.0001)    debLevC =  3 ; #* level of moderate debug prt (most pkgs debug msg) */
(PID.TID 0000.0001)    debLevD =  4 ; #* level of enhanced debug prt (add DEBUG_STATS prt) */
(PID.TID 0000.0001)    debLevE =  5 ; #* level of extensive debug printing */
(PID.TID 0000.0001) debugLevel =  #* select debug printing level */
(PID.TID 0000.0001)                       5
(PID.TID 0000.0001)     ;
(PID.TID 0000.0001)  plotLevel =  #* select PLOT_FIELD printing level */
(PID.TID 0000.0001)                       5
(PID.TID 0000.0001)     ;
(PID.TID 0000.0001) #/
(PID.TID 0000.0001) #/ Elliptic solver(s) paramters ( PARM02 in namelist )
(PID.TID 0000.0001) #/
(PID.TID 0000.0001) cg2dMaxIters =   #* Upper limit on 2d con. grad iterations  */
(PID.TID 0000.0001)                     300
(PID.TID 0000.0001)     ;
(PID.TID 0000.0001) cg2dChkResFreq =   #* 2d con. grad convergence test frequency */
(PID.TID 0000.0001)                       1
(PID.TID 0000.0001)     ;
(PID.TID 0000.0001) cg2dUseMinResSol= #* use cg2d last-iter(=0) / min-resid.(=1) solution */
(PID.TID 0000.0001)                       0
(PID.TID 0000.0001)     ;
(PID.TID 0000.0001) cg2dTargetResidual =   #* 2d con. grad target residual  */
(PID.TID 0000.0001)                 1.000000000000000E-08
(PID.TID 0000.0001)     ;
(PID.TID 0000.0001) cg2dTargetResWunit =   #* CG2d target residual [W units] */
(PID.TID 0000.0001)                -1.000000000000000E+00
(PID.TID 0000.0001)     ;
(PID.TID 0000.0001) cg2dPreCondFreq =   #* Freq. for updating cg2d preconditioner */
(PID.TID 0000.0001)                       1
(PID.TID 0000.0001)     ;
(PID.TID 0000.0001) useSRCGSolver =  #* use single reduction CG solver(s) */
(PID.TID 0000.0001)                   F
(PID.TID 0000.0001)     ;
(PID.TID 0000.0001) printResidualFreq = #* Freq. for printing CG residual */
(PID.TID 0000.0001)                       1
(PID.TID 0000.0001)     ;
(PID.TID 0000.0001) #/
(PID.TID 0000.0001) #/ Time stepping paramters ( PARM03 in namelist )
(PID.TID 0000.0001) #/
(PID.TID 0000.0001) deltaTMom =   #* Momentum equation timestep ( s ) */
(PID.TID 0000.0001)                 9.000000000000000E+02
(PID.TID 0000.0001)     ;
(PID.TID 0000.0001) deltaTFreeSurf = #* FreeSurface equation timestep ( s ) */
(PID.TID 0000.0001)                 9.000000000000000E+02
(PID.TID 0000.0001)     ;
(PID.TID 0000.0001) dTtracerLev =  #* Tracer equation timestep ( s ) */
(PID.TID 0000.0001)   100 @  9.000000000000000E+02              /* K =  1:100 */
(PID.TID 0000.0001)     ;
(PID.TID 0000.0001) deltaTClock  =   #* Model clock timestep ( s ) */
(PID.TID 0000.0001)                 9.000000000000000E+02
(PID.TID 0000.0001)     ;
(PID.TID 0000.0001) cAdjFreq =   #* Convective adjustment interval ( s ) */
(PID.TID 0000.0001)                 0.000000000000000E+00
(PID.TID 0000.0001)     ;
(PID.TID 0000.0001) momForcingOutAB = #* =1: take Momentum Forcing out of Adams-Bash. stepping */
(PID.TID 0000.0001)                       1
(PID.TID 0000.0001)     ;
(PID.TID 0000.0001) tracForcingOutAB = #* =1: take T,S,pTr Forcing out of Adams-Bash. stepping */
(PID.TID 0000.0001)                       1
(PID.TID 0000.0001)     ;
(PID.TID 0000.0001) momDissip_In_AB = #* put Dissipation Tendency in Adams-Bash. stepping */
(PID.TID 0000.0001)                   F
(PID.TID 0000.0001)     ;
(PID.TID 0000.0001) doAB_onGtGs = #* apply AB on Tendencies (rather than on T,S)*/
(PID.TID 0000.0001)                   T
(PID.TID 0000.0001)     ;
(PID.TID 0000.0001) abEps =   #* Adams-Bashforth-2 stabilizing weight */
(PID.TID 0000.0001)                 1.000000000000000E-02
(PID.TID 0000.0001)     ;
(PID.TID 0000.0001) applyExchUV_early = #* Apply EXCH to U,V earlier in time-step */
(PID.TID 0000.0001)                   F
(PID.TID 0000.0001)     ;
(PID.TID 0000.0001) pickupStrictlyMatch= #* stop if pickup do not strictly match */
(PID.TID 0000.0001)                   F
(PID.TID 0000.0001)     ;
(PID.TID 0000.0001) nIter0   =   #* Run starting timestep number */
(PID.TID 0000.0001)                       0
(PID.TID 0000.0001)     ;
(PID.TID 0000.0001) nTimeSteps = #* Number of timesteps */
(PID.TID 0000.0001)                       1
(PID.TID 0000.0001)     ;
(PID.TID 0000.0001) nEndIter =   #* Run ending timestep number */
(PID.TID 0000.0001)                       1
(PID.TID 0000.0001)     ;
(PID.TID 0000.0001) baseTime =   #* Model base time ( s ) */
(PID.TID 0000.0001)                 0.000000000000000E+00
(PID.TID 0000.0001)     ;
(PID.TID 0000.0001) startTime =  #* Run start time ( s ) */
(PID.TID 0000.0001)                 0.000000000000000E+00
(PID.TID 0000.0001)     ;
(PID.TID 0000.0001) endTime  =   #* Integration ending time ( s ) */
[...]
(PID.TID 0000.0001) DEBUG_MSG: CALLING S#R DO_THE_MODEL_IO
(PID.TID 0000.0001) DEBUG_MSG: LEAVING S#R INITIALISE_VARIA
(PID.TID 0000.0001) whio : create lev 3 rec 221
(PID.TID 0000.0001) DEBUG_MSG: ENTERED S#R AUTODIFF_STORE
(PID.TID 0000.0001) DEBUG_MSG: LEAVING S#R AUTODIFF_STORE
(PID.TID 0000.0001) DEBUG_MSG: ENTERED S#R AUTODIFF_RESTORE
(PID.TID 0000.0001) DEBUG_MSG: LEAVING S#R AUTODIFF_RESTORE
(PID.TID 0000.0001) whio : create lev 2 rec 221
(PID.TID 0000.0001) DEBUG_MSG: ENTERED S#R AUTODIFF_STORE
(PID.TID 0000.0001) DEBUG_MSG: LEAVING S#R AUTODIFF_STORE
(PID.TID 0000.0001) DEBUG_MSG: ENTERED S#R AUTODIFF_RESTORE
(PID.TID 0000.0001) DEBUG_MSG: LEAVING S#R AUTODIFF_RESTORE
(PID.TID 0000.0001) DEBUG_MSG: ENTERED S#R MAIN_DO_LOOP
(PID.TID 0000.0001) DEBUG_MSG: CALLING S#R FORWARD_STEP
(PID.TID 0000.0001) DEBUG_MSG: ENTERED S#R FORWARD_STEP
(PID.TID 0000.0001) DEBUG_MSG: CALLING S#R LOAD_FIELDS_DRIVER
(PID.TID 0000.0001) DEBUG_MSG: ENTERED S#R LOAD_FIELDS_DRIVER
(PID.TID 0000.0001) DEBUG_MSG: CALLING S#R EXTERNAL_FIELDS_LOAD
 EXTERNAL_FIELDS_LOAD,         0 : iP,iLd,i0,i1=   12    0   12    1 ; Wght=  0.5000000000  0.5000000000
 EXTERNAL_FIELDS_LOAD, it=         0 : Reading new data, i0,i1=   12    1 (prev=   12    0 )
 EXTERNAL_FIELDS_LOAD: (fu0,1),fu,fv=  0.0000E+00  0.0000E+00  0.0000E+00  0.0000E+00
 EXTERNAL_FIELDS_LOAD: SST,SSS,Q,E-P=  0.0000E+00  0.0000E+00  0.0000E+00  0.0000E+00
(PID.TID 0000.0001) DEBUG_MSG: LEAVING S#R LOAD_FIELDS_DRIVER
(PID.TID 0000.0001) DEBUG_MSG: CALLING S#R DO_ATMOSPHERIC_PHYS
(PID.TID 0000.0001) DEBUG_MSG: ENTERED S#R DO_ATMOSPHERIC_PHYS
(PID.TID 0000.0001) DEBUG_MSG: LEAVING S#R DO_ATMOSPHERIC_PHYS
(PID.TID 0000.0001) DEBUG_MSG: CALLING S#R DO_OCEANIC_PHYS
(PID.TID 0000.0001) DEBUG_MSG: ENTERED S#R DO_OCEANIC_PHYS
(PID.TID 0000.0001) DEBUG_MSG: CALLING S#R EXTERNAL_FORCING_SURF
(PID.TID 0000.0001) DEBUG_MSG: CALLING S#R FIND_RHO_2D (xNr)
(PID.TID 0000.0001) DEBUG_MSG:                  ENTERING UPWARD K LOOP (bi=   1, bj=   1)
(PID.TID 0000.0001) DEBUG_MSG: CALLING S#R GRAD_SIGMA
(PID.TID 0000.0001) DEBUG_MSG: CALLING S#R CALC_IVDC
(PID.TID 0000.0001) DEBUG_MSG: CALLING S#R GRAD_SIGMA
(PID.TID 0000.0001) DEBUG_MSG: CALLING S#R CALC_IVDC
(PID.TID 0000.0001) DEBUG_MSG: CALLING S#R GRAD_SIGMA
(PID.TID 0000.0001) DEBUG_MSG: CALLING S#R CALC_IVDC
(PID.TID 0000.0001) DEBUG_MSG: CALLING S#R GRAD_SIGMA
(PID.TID 0000.0001) DEBUG_MSG: CALLING S#R CALC_IVDC
(PID.TID 0000.0001) DEBUG_MSG: CALLING S#R GRAD_SIGMA
(PID.TID 0000.0001) DEBUG_MSG: CALLING S#R CALC_IVDC
(PID.TID 0000.0001) DEBUG_MSG: CALLING S#R GRAD_SIGMA
(PID.TID 0000.0001) DEBUG_MSG: CALLING S#R CALC_IVDC
(PID.TID 0000.0001) DEBUG_MSG: CALLING S#R GRAD_SIGMA
(PID.TID 0000.0001) DEBUG_MSG: CALLING S#R CALC_IVDC
(PID.TID 0000.0001) DEBUG_MSG: CALLING S#R GRAD_SIGMA
(PID.TID 0000.0001) DEBUG_MSG: CALLING S#R CALC_IVDC
(PID.TID 0000.0001) DEBUG_MSG: CALLING S#R GRAD_SIGMA
(PID.TID 0000.0001) DEBUG_MSG: CALLING S#R CALC_IVDC
(PID.TID 0000.0001) DEBUG_MSG: CALLING S#R GRAD_SIGMA
(PID.TID 0000.0001) DEBUG_MSG: CALLING S#R CALC_IVDC
(PID.TID 0000.0001) DEBUG_MSG: CALLING S#R GRAD_SIGMA
(PID.TID 0000.0001) DEBUG_MSG: CALLING S#R CALC_IVDC
(PID.TID 0000.0001) DEBUG_MSG: CALLING S#R GRAD_SIGMA
(PID.TID 0000.0001) DEBUG_MSG: CALLING S#R CALC_IVDC
(PID.TID 0000.0001) DEBUG_MSG: CALLING S#R GRAD_SIGMA
(PID.TID 0000.0001) DEBUG_MSG: CALLING S#R CALC_IVDC
(PID.TID 0000.0001) DEBUG_MSG: CALLING S#R GRAD_SIGMA
(PID.TID 0000.0001) DEBUG_MSG: CALLING S#R CALC_IVDC
(PID.TID 0000.0001) DEBUG_MSG: CALLING S#R GRAD_SIGMA
(PID.TID 0000.0001) DEBUG_MSG: CALLING S#R CALC_IVDC
(PID.TID 0000.0001) DEBUG_MSG: CALLING S#R GRAD_SIGMA
(PID.TID 0000.0001) DEBUG_MSG: CALLING S#R CALC_IVDC
(PID.TID 0000.0001) DEBUG_MSG: CALLING S#R GRAD_SIGMA
(PID.TID 0000.0001) DEBUG_MSG: CALLING S#R CALC_IVDC
(PID.TID 0000.0001) DEBUG_MSG: CALLING S#R GRAD_SIGMA
(PID.TID 0000.0001) DEBUG_MSG: CALLING S#R CALC_IVDC
(PID.TID 0000.0001) DEBUG_MSG: CALLING S#R GRAD_SIGMA
(PID.TID 0000.0001) DEBUG_MSG: CALLING S#R CALC_IVDC
(PID.TID 0000.0001) DEBUG_MSG: CALLING S#R GRAD_SIGMA
(PID.TID 0000.0001) DEBUG_MSG: CALLING S#R CALC_IVDC
(PID.TID 0000.0001) DEBUG_MSG: CALLING S#R GRAD_SIGMA
(PID.TID 0000.0001) DEBUG_MSG: CALLING S#R CALC_IVDC
(PID.TID 0000.0001) DEBUG_MSG: CALLING S#R GRAD_SIGMA
(PID.TID 0000.0001) DEBUG_MSG: CALLING S#R CALC_IVDC
(PID.TID 0000.0001) DEBUG_MSG: CALLING S#R GRAD_SIGMA
(PID.TID 0000.0001) DEBUG_MSG: CALLING S#R CALC_IVDC
(PID.TID 0000.0001) DEBUG_MSG: CALLING S#R GRAD_SIGMA
(PID.TID 0000.0001) DEBUG_MSG: CALLING S#R CALC_IVDC
(PID.TID 0000.0001) DEBUG_MSG: CALLING S#R GRAD_SIGMA
(PID.TID 0000.0001) DEBUG_MSG: CALLING S#R CALC_IVDC
(PID.TID 0000.0001) DEBUG_MSG: CALLING S#R GRAD_SIGMA
(PID.TID 0000.0001) DEBUG_MSG: CALLING S#R CALC_IVDC
(PID.TID 0000.0001) DEBUG_MSG: CALLING S#R GRAD_SIGMA
(PID.TID 0000.0001) DEBUG_MSG: CALLING S#R CALC_IVDC
(PID.TID 0000.0001) DEBUG_MSG: CALLING S#R GRAD_SIGMA
(PID.TID 0000.0001) DEBUG_MSG: CALLING S#R CALC_IVDC
(PID.TID 0000.0001) DEBUG_MSG: CALLING S#R GRAD_SIGMA
(PID.TID 0000.0001) DEBUG_MSG: CALLING S#R CALC_IVDC
(PID.TID 0000.0001) DEBUG_MSG: CALLING S#R GRAD_SIGMA
(PID.TID 0000.0001) DEBUG_MSG: CALLING S#R CALC_IVDC
(PID.TID 0000.0001) DEBUG_MSG: CALLING S#R GRAD_SIGMA
(PID.TID 0000.0001) DEBUG_MSG: CALLING S#R CALC_IVDC
(PID.TID 0000.0001) DEBUG_MSG: CALLING S#R GRAD_SIGMA
(PID.TID 0000.0001) DEBUG_MSG: CALLING S#R CALC_IVDC
(PID.TID 0000.0001) DEBUG_MSG: CALLING S#R GRAD_SIGMA
(PID.TID 0000.0001) DEBUG_MSG: CALLING S#R CALC_IVDC
(PID.TID 0000.0001) DEBUG_MSG: CALLING S#R GRAD_SIGMA
(PID.TID 0000.0001) DEBUG_MSG: CALLING S#R CALC_IVDC
(PID.TID 0000.0001) DEBUG_MSG: CALLING S#R GRAD_SIGMA
(PID.TID 0000.0001) DEBUG_MSG: CALLING S#R CALC_IVDC
(PID.TID 0000.0001) DEBUG_MSG: CALLING S#R GRAD_SIGMA
(PID.TID 0000.0001) DEBUG_MSG: CALLING S#R CALC_IVDC
(PID.TID 0000.0001) DEBUG_MSG: CALLING S#R GRAD_SIGMA
(PID.TID 0000.0001) DEBUG_MSG: CALLING S#R CALC_IVDC
(PID.TID 0000.0001) DEBUG_MSG: CALLING S#R GRAD_SIGMA
(PID.TID 0000.0001) DEBUG_MSG: CALLING S#R CALC_IVDC
(PID.TID 0000.0001) DEBUG_MSG: CALLING S#R GRAD_SIGMA
(PID.TID 0000.0001) DEBUG_MSG: CALLING S#R CALC_IVDC
(PID.TID 0000.0001) DEBUG_MSG: CALLING S#R GRAD_SIGMA
(PID.TID 0000.0001) DEBUG_MSG: CALLING S#R CALC_IVDC
(PID.TID 0000.0001) DEBUG_MSG: CALLING S#R GRAD_SIGMA
(PID.TID 0000.0001) DEBUG_MSG: CALLING S#R CALC_IVDC
(PID.TID 0000.0001) DEBUG_MSG: CALLING S#R GRAD_SIGMA
(PID.TID 0000.0001) DEBUG_MSG: CALLING S#R CALC_IVDC
(PID.TID 0000.0001) DEBUG_MSG: CALLING S#R GRAD_SIGMA
(PID.TID 0000.0001) DEBUG_MSG: CALLING S#R CALC_IVDC
(PID.TID 0000.0001) DEBUG_MSG: CALLING S#R GRAD_SIGMA
(PID.TID 0000.0001) DEBUG_MSG: CALLING S#R CALC_IVDC
(PID.TID 0000.0001) DEBUG_MSG: CALLING S#R GRAD_SIGMA
(PID.TID 0000.0001) DEBUG_MSG: CALLING S#R CALC_IVDC
(PID.TID 0000.0001) DEBUG_MSG: CALLING S#R GRAD_SIGMA
(PID.TID 0000.0001) DEBUG_MSG: CALLING S#R CALC_IVDC
(PID.TID 0000.0001) DEBUG_MSG: CALLING S#R GRAD_SIGMA
(PID.TID 0000.0001) DEBUG_MSG: CALLING S#R CALC_IVDC
(PID.TID 0000.0001) DEBUG_MSG: CALLING S#R GRAD_SIGMA
(PID.TID 0000.0001) DEBUG_MSG: CALLING S#R CALC_IVDC
(PID.TID 0000.0001) DEBUG_MSG: CALLING S#R GRAD_SIGMA
(PID.TID 0000.0001) DEBUG_MSG: CALLING S#R CALC_IVDC
(PID.TID 0000.0001) DEBUG_MSG: CALLING S#R GRAD_SIGMA
(PID.TID 0000.0001) DEBUG_MSG: CALLING S#R CALC_IVDC
(PID.TID 0000.0001) DEBUG_MSG: CALLING S#R GRAD_SIGMA
(PID.TID 0000.0001) DEBUG_MSG: CALLING S#R CALC_IVDC
(PID.TID 0000.0001) DEBUG_MSG: CALLING S#R GRAD_SIGMA
(PID.TID 0000.0001) DEBUG_MSG: CALLING S#R CALC_IVDC
(PID.TID 0000.0001) DEBUG_MSG: CALLING S#R GRAD_SIGMA
(PID.TID 0000.0001) DEBUG_MSG: CALLING S#R CALC_IVDC
(PID.TID 0000.0001) DEBUG_MSG: CALLING S#R GRAD_SIGMA
(PID.TID 0000.0001) DEBUG_MSG: CALLING S#R CALC_IVDC
(PID.TID 0000.0001) DEBUG_MSG: CALLING S#R GRAD_SIGMA
(PID.TID 0000.0001) DEBUG_MSG: CALLING S#R CALC_IVDC
(PID.TID 0000.0001) DEBUG_MSG: CALLING S#R GRAD_SIGMA
(PID.TID 0000.0001) DEBUG_MSG: CALLING S#R CALC_IVDC
(PID.TID 0000.0001) DEBUG_MSG: CALLING S#R GRAD_SIGMA
(PID.TID 0000.0001) DEBUG_MSG: CALLING S#R CALC_IVDC
(PID.TID 0000.0001) DEBUG_MSG: CALLING S#R GRAD_SIGMA
(PID.TID 0000.0001) DEBUG_MSG: CALLING S#R CALC_IVDC
(PID.TID 0000.0001) DEBUG_MSG: CALLING S#R GRAD_SIGMA
(PID.TID 0000.0001) DEBUG_MSG: CALLING S#R CALC_IVDC
(PID.TID 0000.0001) DEBUG_MSG: CALLING S#R GRAD_SIGMA
(PID.TID 0000.0001) DEBUG_MSG: CALLING S#R CALC_IVDC
(PID.TID 0000.0001) DEBUG_MSG: CALLING S#R GRAD_SIGMA
(PID.TID 0000.0001) DEBUG_MSG: CALLING S#R CALC_IVDC
(PID.TID 0000.0001) DEBUG_MSG: CALLING S#R GRAD_SIGMA
(PID.TID 0000.0001) DEBUG_MSG: CALLING S#R CALC_IVDC
(PID.TID 0000.0001) DEBUG_MSG: CALLING S#R GRAD_SIGMA
(PID.TID 0000.0001) DEBUG_MSG: CALLING S#R CALC_IVDC
(PID.TID 0000.0001) DEBUG_MSG: CALLING S#R GRAD_SIGMA
(PID.TID 0000.0001) DEBUG_MSG: CALLING S#R CALC_IVDC
(PID.TID 0000.0001) DEBUG_MSG: CALLING S#R GRAD_SIGMA
(PID.TID 0000.0001) DEBUG_MSG: CALLING S#R CALC_IVDC
(PID.TID 0000.0001) DEBUG_MSG: CALLING S#R GRAD_SIGMA
(PID.TID 0000.0001) DEBUG_MSG: CALLING S#R CALC_IVDC
(PID.TID 0000.0001) DEBUG_MSG: CALLING S#R GRAD_SIGMA
(PID.TID 0000.0001) DEBUG_MSG: CALLING S#R CALC_IVDC
(PID.TID 0000.0001) DEBUG_MSG: CALLING S#R GRAD_SIGMA
(PID.TID 0000.0001) DEBUG_MSG: CALLING S#R CALC_IVDC
(PID.TID 0000.0001) DEBUG_MSG: CALLING S#R GRAD_SIGMA
(PID.TID 0000.0001) DEBUG_MSG: CALLING S#R CALC_IVDC
(PID.TID 0000.0001) DEBUG_MSG: CALLING S#R GRAD_SIGMA
(PID.TID 0000.0001) DEBUG_MSG: CALLING S#R CALC_IVDC
(PID.TID 0000.0001) DEBUG_MSG: CALLING S#R GRAD_SIGMA
(PID.TID 0000.0001) DEBUG_MSG: CALLING S#R CALC_IVDC
(PID.TID 0000.0001) DEBUG_MSG: CALLING S#R GRAD_SIGMA
(PID.TID 0000.0001) DEBUG_MSG: CALLING S#R CALC_IVDC
(PID.TID 0000.0001) DEBUG_MSG: CALLING S#R GRAD_SIGMA
(PID.TID 0000.0001) DEBUG_MSG: CALLING S#R CALC_IVDC
(PID.TID 0000.0001) DEBUG_MSG: CALLING S#R GRAD_SIGMA
(PID.TID 0000.0001) DEBUG_MSG: CALLING S#R CALC_IVDC
(PID.TID 0000.0001) DEBUG_MSG: CALLING S#R GRAD_SIGMA
(PID.TID 0000.0001) DEBUG_MSG: CALLING S#R CALC_IVDC
(PID.TID 0000.0001) DEBUG_MSG: CALLING S#R GRAD_SIGMA
(PID.TID 0000.0001) DEBUG_MSG: CALLING S#R CALC_IVDC
(PID.TID 0000.0001) DEBUG_MSG: CALLING S#R GRAD_SIGMA
(PID.TID 0000.0001) DEBUG_MSG: CALLING S#R CALC_IVDC
(PID.TID 0000.0001) DEBUG_MSG: CALLING S#R GRAD_SIGMA
(PID.TID 0000.0001) DEBUG_MSG: CALLING S#R CALC_IVDC
(PID.TID 0000.0001) DEBUG_MSG: CALLING S#R GRAD_SIGMA
(PID.TID 0000.0001) DEBUG_MSG: CALLING S#R CALC_IVDC
(PID.TID 0000.0001) DEBUG_MSG: CALLING S#R GRAD_SIGMA
(PID.TID 0000.0001) DEBUG_MSG: CALLING S#R CALC_IVDC
(PID.TID 0000.0001) DEBUG_MSG: CALLING S#R GRAD_SIGMA
(PID.TID 0000.0001) DEBUG_MSG: CALLING S#R CALC_IVDC
(PID.TID 0000.0001) DEBUG_MSG: CALLING S#R GRAD_SIGMA
(PID.TID 0000.0001) DEBUG_MSG: CALLING S#R CALC_IVDC
(PID.TID 0000.0001) DEBUG_MSG: CALLING S#R GRAD_SIGMA
(PID.TID 0000.0001) DEBUG_MSG: CALLING S#R CALC_IVDC
(PID.TID 0000.0001) DEBUG_MSG: CALLING S#R GRAD_SIGMA
(PID.TID 0000.0001) DEBUG_MSG: CALLING S#R CALC_IVDC
(PID.TID 0000.0001) DEBUG_MSG: CALLING S#R GRAD_SIGMA
(PID.TID 0000.0001) DEBUG_MSG: CALLING S#R CALC_IVDC
(PID.TID 0000.0001) DEBUG_MSG: CALLING S#R GRAD_SIGMA
(PID.TID 0000.0001) DEBUG_MSG: CALLING S#R CALC_IVDC
(PID.TID 0000.0001) DEBUG_MSG: CALLING S#R GRAD_SIGMA
(PID.TID 0000.0001) DEBUG_MSG: CALLING S#R CALC_IVDC
(PID.TID 0000.0001) DEBUG_MSG: CALLING S#R GRAD_SIGMA
(PID.TID 0000.0001) DEBUG_MSG: CALLING S#R CALC_IVDC
(PID.TID 0000.0001) DEBUG_MSG: CALLING S#R GRAD_SIGMA
(PID.TID 0000.0001) DEBUG_MSG: CALLING S#R CALC_IVDC
(PID.TID 0000.0001) DEBUG_MSG: CALLING S#R GRAD_SIGMA
(PID.TID 0000.0001) DEBUG_MSG: CALLING S#R CALC_IVDC
(PID.TID 0000.0001) DEBUG_MSG: CALLING S#R GRAD_SIGMA
(PID.TID 0000.0001) DEBUG_MSG: CALLING S#R CALC_IVDC
(PID.TID 0000.0001) DEBUG_MSG: CALLING S#R GRAD_SIGMA
(PID.TID 0000.0001) DEBUG_MSG: CALLING S#R CALC_IVDC
(PID.TID 0000.0001) DEBUG_MSG: CALLING S#R GRAD_SIGMA
(PID.TID 0000.0001) DEBUG_MSG: CALLING S#R CALC_IVDC
(PID.TID 0000.0001) DEBUG_MSG: CALLING S#R GRAD_SIGMA
(PID.TID 0000.0001) DEBUG_MSG: CALLING S#R CALC_IVDC
(PID.TID 0000.0001) DEBUG_MSG: CALLING S#R GRAD_SIGMA
(PID.TID 0000.0001) DEBUG_MSG: CALLING S#R CALC_IVDC
(PID.TID 0000.0001) DEBUG_MSG: CALLING S#R GRAD_SIGMA
(PID.TID 0000.0001) DEBUG_MSG: CALLING S#R CALC_IVDC
(PID.TID 0000.0001) DEBUG_MSG: CALLING S#R GRAD_SIGMA
(PID.TID 0000.0001) DEBUG_MSG: CALLING S#R CALC_IVDC
(PID.TID 0000.0001) DEBUG_MSG: CALLING S#R GRAD_SIGMA
(PID.TID 0000.0001) DEBUG_MSG: CALLING S#R CALC_IVDC
(PID.TID 0000.0001) DEBUG_MSG: CALLING S#R GRAD_SIGMA
(PID.TID 0000.0001) DEBUG_MSG: CALLING S#R CALC_IVDC
(PID.TID 0000.0001) DEBUG_MSG: LEAVING S#R DO_OCEANIC_PHYS
(PID.TID 0000.0001) DEBUG_MSG: CALLING S#R DYNAMICS
(PID.TID 0000.0001) DEBUG_MSG: ENTERED S#R DYNAMICS
DEBUG_STATS_RL:                EtaN (DYNAMICS)  min=  0.00000000000000E+00
DEBUG_STATS_RL:                EtaN (DYNAMICS)  max=  0.00000000000000E+00
DEBUG_STATS_RL:                EtaN (DYNAMICS) mean=  0.00000000000000E+00
DEBUG_STATS_RL:                EtaN (DYNAMICS) S.D.=  0.00000000000000E+00
DEBUG_STATS_RL:                Uvel (DYNAMICS)  min=  0.00000000000000E+00
DEBUG_STATS_RL:                Uvel (DYNAMICS)  max=  0.00000000000000E+00
DEBUG_STATS_RL:                Uvel (DYNAMICS) mean=  0.00000000000000E+00
DEBUG_STATS_RL:                Uvel (DYNAMICS) S.D.=  0.00000000000000E+00
DEBUG_STATS_RL:                Vvel (DYNAMICS)  min=  0.00000000000000E+00
DEBUG_STATS_RL:                Vvel (DYNAMICS)  max=  0.00000000000000E+00
DEBUG_STATS_RL:                Vvel (DYNAMICS) mean=  0.00000000000000E+00
DEBUG_STATS_RL:                Vvel (DYNAMICS) S.D.=  0.00000000000000E+00
DEBUG_STATS_RL:                Wvel (DYNAMICS)  min=  0.00000000000000E+00
DEBUG_STATS_RL:                Wvel (DYNAMICS)  max=  0.00000000000000E+00
DEBUG_STATS_RL:                Wvel (DYNAMICS) mean=  0.00000000000000E+00
DEBUG_STATS_RL:                Wvel (DYNAMICS) S.D.=  0.00000000000000E+00
DEBUG_STATS_RL:               Theta (DYNAMICS)  min=  2.00000000000000E+01
DEBUG_STATS_RL:               Theta (DYNAMICS)  max=  2.00000000000000E+01
DEBUG_STATS_RL:               Theta (DYNAMICS) mean=  2.00000000000000E+01
DEBUG_STATS_RL:               Theta (DYNAMICS) S.D.=  0.00000000000000E+00
DEBUG_STATS_RL:                Salt (DYNAMICS)  min=  3.00000000000000E+01
DEBUG_STATS_RL:                Salt (DYNAMICS)  max=  3.00000000000000E+01
DEBUG_STATS_RL:                Salt (DYNAMICS) mean=  3.00000000000000E+01
DEBUG_STATS_RL:                Salt (DYNAMICS) S.D.=  0.00000000000000E+00
DEBUG_STATS_RL:                  Gu (DYNAMICS)  min=  0.00000000000000E+00
DEBUG_STATS_RL:                  Gu (DYNAMICS)  max=  0.00000000000000E+00
DEBUG_STATS_RL:                  Gu (DYNAMICS) mean=  0.00000000000000E+00
DEBUG_STATS_RL:                  Gu (DYNAMICS) S.D.=  0.00000000000000E+00
DEBUG_STATS_RL:                  Gv (DYNAMICS)  min=  0.00000000000000E+00
DEBUG_STATS_RL:                  Gv (DYNAMICS)  max=  0.00000000000000E+00
DEBUG_STATS_RL:                  Gv (DYNAMICS) mean=  0.00000000000000E+00
DEBUG_STATS_RL:                  Gv (DYNAMICS) S.D.=  0.00000000000000E+00
DEBUG_STATS_RL:               GuNm1 (DYNAMICS)  min=  0.00000000000000E+00
DEBUG_STATS_RL:               GuNm1 (DYNAMICS)  max=  0.00000000000000E+00
DEBUG_STATS_RL:               GuNm1 (DYNAMICS) mean=  0.00000000000000E+00
DEBUG_STATS_RL:               GuNm1 (DYNAMICS) S.D.=  0.00000000000000E+00
DEBUG_STATS_RL:               GvNm1 (DYNAMICS)  min=  0.00000000000000E+00
DEBUG_STATS_RL:               GvNm1 (DYNAMICS)  max=  0.00000000000000E+00
DEBUG_STATS_RL:               GvNm1 (DYNAMICS) mean=  0.00000000000000E+00
DEBUG_STATS_RL:               GvNm1 (DYNAMICS) S.D.=  0.00000000000000E+00
DEBUG_STATS_RL:               GtNm1 (DYNAMICS)  min=  0.00000000000000E+00
DEBUG_STATS_RL:               GtNm1 (DYNAMICS)  max=  0.00000000000000E+00
DEBUG_STATS_RL:               GtNm1 (DYNAMICS) mean=  0.00000000000000E+00
DEBUG_STATS_RL:               GtNm1 (DYNAMICS) S.D.=  0.00000000000000E+00
DEBUG_STATS_RL:               GsNm1 (DYNAMICS)  min=  0.00000000000000E+00
DEBUG_STATS_RL:               GsNm1 (DYNAMICS)  max=  0.00000000000000E+00
DEBUG_STATS_RL:               GsNm1 (DYNAMICS) mean=  0.00000000000000E+00
DEBUG_STATS_RL:               GsNm1 (DYNAMICS) S.D.=  0.00000000000000E+00
(PID.TID 0000.0001) DEBUG_MSG: LEAVING S#R DYNAMICS
(PID.TID 0000.0001) SOLVE_FOR_PRESSURE: putPmEinXvector =    F
DEBUG_STATS_RL:    cg2d_b (SOLVE_FOR_PRESSURE)  min=  0.00000000000000E+00
DEBUG_STATS_RL:    cg2d_b (SOLVE_FOR_PRESSURE)  max=  0.00000000000000E+00
DEBUG_STATS_RL:    cg2d_b (SOLVE_FOR_PRESSURE) mean=  0.00000000000000E+00
DEBUG_STATS_RL:    cg2d_b (SOLVE_FOR_PRESSURE) S.D.=  0.00000000000000E+00
 cg2d: Sum(rhs),rhsMax =   0.00000000000000E+00  0.00000000000000E+00
DEBUG_STATS_RL:    cg2d_x (SOLVE_FOR_PRESSURE)  min=  0.00000000000000E+00
DEBUG_STATS_RL:    cg2d_x (SOLVE_FOR_PRESSURE)  max=  0.00000000000000E+00
DEBUG_STATS_RL:    cg2d_x (SOLVE_FOR_PRESSURE) mean=  0.00000000000000E+00
DEBUG_STATS_RL:    cg2d_x (SOLVE_FOR_PRESSURE) S.D.=  0.00000000000000E+00
(PID.TID 0000.0001) DEBUG_MSG: CALLING S#R DO_STAGGER_FIELDS_EXCH.
(PID.TID 0000.0001) DEBUG_MSG: CALLING S#R THERMODYNAMICS
(PID.TID 0000.0001) DEBUG_MSG: ENTERED S#R THERMODYNAMICS
(PID.TID 0000.0001) DEBUG_MSG: CALLING S#R TEMP_INTEGRATE
(PID.TID 0000.0001) DEBUG_MSG: CALLING S#R GAD_ADVECTION
(PID.TID 0000.0001) DEBUG_MSG: CALLING S#R SALT_INTEGRATE
(PID.TID 0000.0001) DEBUG_MSG: CALLING S#R GAD_ADVECTION
DEBUG_STATS_RL:          Uvel (THERMODYNAMICS)  min=  0.00000000000000E+00
DEBUG_STATS_RL:          Uvel (THERMODYNAMICS)  max=  0.00000000000000E+00
DEBUG_STATS_RL:          Uvel (THERMODYNAMICS) mean=  0.00000000000000E+00
DEBUG_STATS_RL:          Uvel (THERMODYNAMICS) S.D.=  0.00000000000000E+00
DEBUG_STATS_RL:          Vvel (THERMODYNAMICS)  min=  0.00000000000000E+00
DEBUG_STATS_RL:          Vvel (THERMODYNAMICS)  max=  0.00000000000000E+00
DEBUG_STATS_RL:          Vvel (THERMODYNAMICS) mean=  0.00000000000000E+00
DEBUG_STATS_RL:          Vvel (THERMODYNAMICS) S.D.=  0.00000000000000E+00
DEBUG_STATS_RL:          Wvel (THERMODYNAMICS)  min=  0.00000000000000E+00
DEBUG_STATS_RL:          Wvel (THERMODYNAMICS)  max=  0.00000000000000E+00
DEBUG_STATS_RL:          Wvel (THERMODYNAMICS) mean=  0.00000000000000E+00
DEBUG_STATS_RL:          Wvel (THERMODYNAMICS) S.D.=  0.00000000000000E+00
DEBUG_STATS_RL:         Theta (THERMODYNAMICS)  min=  2.00000000000000E+01
DEBUG_STATS_RL:         Theta (THERMODYNAMICS)  max=  2.00000000000000E+01
DEBUG_STATS_RL:         Theta (THERMODYNAMICS) mean=  2.00000000000000E+01
DEBUG_STATS_RL:         Theta (THERMODYNAMICS) S.D.=  2.78986545208335E-15
DEBUG_STATS_RL:          Salt (THERMODYNAMICS)  min=  3.00000000000000E+01
DEBUG_STATS_RL:          Salt (THERMODYNAMICS)  max=  3.00000000000000E+01
DEBUG_STATS_RL:          Salt (THERMODYNAMICS) mean=  3.00000000000000E+01
DEBUG_STATS_RL:          Salt (THERMODYNAMICS) S.D.=  3.27743204971513E-15
DEBUG_STATS_RL:         GtNm1 (THERMODYNAMICS)  min=  0.00000000000000E+00
DEBUG_STATS_RL:         GtNm1 (THERMODYNAMICS)  max=  0.00000000000000E+00
DEBUG_STATS_RL:         GtNm1 (THERMODYNAMICS) mean=  0.00000000000000E+00
DEBUG_STATS_RL:         GtNm1 (THERMODYNAMICS) S.D.=  0.00000000000000E+00
DEBUG_STATS_RL:         GsNm1 (THERMODYNAMICS)  min=  0.00000000000000E+00
DEBUG_STATS_RL:         GsNm1 (THERMODYNAMICS)  max=  0.00000000000000E+00
DEBUG_STATS_RL:         GsNm1 (THERMODYNAMICS) mean=  0.00000000000000E+00
DEBUG_STATS_RL:         GsNm1 (THERMODYNAMICS) S.D.=  0.00000000000000E+00
(PID.TID 0000.0001) DEBUG_MSG: LEAVING S#R THERMODYNAMICS
(PID.TID 0000.0001) Did not write pickup because writePickupAtEnd = FALSE
(PID.TID 0000.0001) DEBUG_MSG: LEAVING S#R FORWARD_STEP
(PID.TID 0000.0001) DEBUG_MSG: LEAVING S#R MAIN_DO_LOOP
(PID.TID 0000.0001) DEBUG_MSG: CALLING S#R cost_averagesflags
